16
Properties=species:S:1:pos:R:3 pbc="F F F"
O        0.28950000       1.26300000       0.44510000
C        0.20080000      -0.12020000       0.17600000
C       -1.16850000      -0.46670000      -0.38370000
C       -1.62150000      -1.93680000      -0.30740000
C       -2.64420000      -1.42800000       0.74600000
O       -2.19940000      -0.05570000       0.55900000
C       -4.05400000      -1.62080000       0.45580000
C       -5.21810000      -1.79600000       0.21340000
H       -0.48380000       1.47660000       0.98250000
H        0.98200000      -0.36180000      -0.55400000
H        0.38870000      -0.72270000       1.08130000
H       -1.31770000       0.03110000      -1.34870000
H       -2.07620000      -2.33220000      -1.21450000
H       -0.88040000      -2.64220000       0.07300000
H       -2.42910000      -1.76450000       1.76800000
H       -6.24850000      -1.94520000       0.00270000
