14
Properties=species:S:1:pos:R:3 pbc="F F F"
O        0.09970000      -0.02590000      -0.35570000
C        0.00400000       1.12570000      -0.07850000
C       -1.15110000       2.05900000       0.29040000
C       -0.10460000       3.13010000       0.76550000
C       -0.02200000       3.29540000       2.20040000
C        0.04600000       3.41600000       3.39370000
C        1.05830000       2.26570000       0.11450000
C        2.26390000       1.98530000       0.86170000
N        3.22110000       1.74650000       1.46380000
H       -1.72840000       2.36990000      -0.58540000
H       -1.83320000       1.67790000       1.05190000
H       -0.21300000       4.09830000       0.27310000
H        0.11780000       3.52560000       4.44800000
H        1.31850000       2.66890000      -0.87090000
