21
Properties=species:S:1:pos:R:3 pbc="F F F"
C        0.35420000       1.70430000      -0.15620000
C        0.00760000       0.22630000       0.05740000
C        0.57580000      -0.66290000      -1.05970000
O        1.94110000      -0.88040000      -0.71280000
C        2.03640000      -0.95380000       0.70650000
C        0.71990000      -0.39840000       1.25780000
C        0.60740000       0.13460000       2.66690000
C       -0.04940000      -1.17170000       2.29160000
O       -1.43830000      -1.23250000       2.14670000
H        1.42920000       1.83420000      -0.31780000
H       -0.16770000       2.10080000      -1.03350000
H        0.06580000       2.31260000       0.70650000
H       -1.07360000       0.10180000       0.15180000
H        0.02840000      -1.61740000      -1.11300000
H        0.55700000      -0.19530000      -2.04860000
H        2.20090000      -1.99290000       1.03160000
H        2.90610000      -0.36200000       1.01800000
H        1.48510000       0.11500000       3.30640000
H       -0.05110000       0.98310000       2.82620000
H        0.40960000      -2.09080000       2.66030000
H       -1.83480000      -1.15210000       3.02030000
