21
Properties=species:S:1:pos:R:3 pbc="F F F"
C       -0.09730000       1.51390000      -0.10140000
C       -0.08440000      -0.02280000      -0.05340000
C       -1.28430000      -0.42470000       0.89040000
O       -0.33150000      -0.42770000       2.03480000
C        0.69810000      -0.69710000       1.03010000
C        2.01920000      -0.22250000       0.33750000
C        1.09840000      -0.60370000      -0.94990000
C        1.02130000      -2.12630000      -0.83880000
C        0.76010000      -2.21770000       0.68900000
H        0.78890000       1.94920000      -0.56760000
H       -0.95850000       1.83200000      -0.70110000
H       -0.21150000       1.94690000       0.89770000
H       -2.05250000       0.33980000       1.02800000
H       -1.74530000      -1.40620000       0.75870000
H        2.24050000       0.83830000       0.41010000
H        2.92750000      -0.81590000       0.48120000
H        1.32150000      -0.16230000      -1.92290000
H        0.20580000      -2.54550000      -1.43500000
H        1.95040000      -2.61160000      -1.15130000
H        1.58010000      -2.69140000       1.23560000
H       -0.15380000      -2.75420000       0.94370000
