23
Properties=species:S:1:pos:R:3 pbc="F F F"
C       -0.15190000       1.56620000       0.08900000
C       -0.02000000       0.03880000       0.03010000
C        0.87930000      -0.48680000       1.15780000
C       -1.40390000      -0.61820000       0.08180000
O       -2.23360000      -0.10660000      -0.97290000
C       -2.92100000      -1.16700000      -1.62880000
C       -2.82840000      -2.36590000      -0.68040000
C       -1.44170000      -2.15100000      -0.05950000
O       -0.40230000      -2.55660000      -0.94370000
H        0.82920000       2.04240000      -0.00910000
H       -0.79820000       1.93280000      -0.71120000
H       -0.58220000       1.88740000       1.04590000
H        0.42800000      -0.23840000      -0.92980000
H        1.06310000      -1.55940000       1.05460000
H        1.84840000       0.02220000       1.14340000
H        0.43020000      -0.30460000       2.14240000
H       -1.87660000      -0.35980000       1.04520000
H       -3.95020000      -0.85070000      -1.82820000
H       -2.43570000      -1.39370000      -2.58860000
H       -3.59930000      -2.30950000       0.09590000
H       -2.92200000      -3.33210000      -1.18520000
H       -1.33420000      -2.64160000       0.91680000
H       -0.48640000      -3.50450000      -1.08450000
