18
Properties=species:S:1:pos:R:3 pbc="F F F"
C       -0.18800000       1.40090000      -0.06660000
C        0.06760000      -0.07510000       0.00920000
O       -0.99270000      -0.85370000      -0.52600000
C       -1.15830000      -2.02550000       0.18020000
N       -2.00980000      -2.90870000      -0.10680000
C       -0.17260000      -2.07890000       1.33490000
C        0.67240000      -0.83170000       1.16930000
C        1.43080000      -0.70980000      -0.14110000
O        1.59600000      -1.86330000      -0.90370000
H        0.66600000       1.95300000       0.33530000
H       -0.34360000       1.72000000      -1.10240000
H       -1.07680000       1.67280000       0.51190000
H       -2.54890000      -2.63770000      -0.93050000
H       -0.71480000      -2.07230000       2.28470000
H        0.39960000      -3.00750000       1.28160000
H        1.05030000      -0.31780000       2.04500000
H        2.28290000      -0.02990000      -0.14570000
H        1.19520000      -1.71790000      -1.76750000
