18
Properties=species:S:1:pos:R:3 pbc="F F F"
C        0.03490000       1.58240000       0.03290000
C       -0.03750000       0.08330000      -0.01850000
C        0.42330000      -0.72450000      -1.27890000
C       -0.53210000      -1.80880000      -0.79230000
O       -1.01570000      -2.90520000      -1.46910000
C       -0.43920000      -1.75850000       0.78250000
N        0.46990000      -0.68170000       1.17100000
C       -1.34550000      -0.84110000       0.01600000
O       -2.68470000      -0.57740000       0.01720000
H        1.07620000       1.92380000      -0.00940000
H       -0.49920000       2.02790000      -0.81210000
H       -0.40340000       1.95990000       0.96150000
H        0.06440000      -0.26800000      -2.20530000
H        1.49650000      -0.94300000      -1.35730000
H       -0.36690000      -3.61510000      -1.40750000
H       -0.67330000      -2.62300000       1.39230000
H        1.45790000      -0.92770000       1.07710000
H       -2.94380000      -0.31440000       0.90800000
