14
Properties=species:S:1:pos:R:3 pbc="F F F"
O       -0.00720000       0.07830000      -0.20100000
C        0.04840000       1.25400000      -0.01790000
O       -1.05190000       2.09350000       0.06520000
C       -0.50470000       3.44440000       0.28900000
C        0.71520000       3.55290000      -0.63000000
C        1.77100000       3.94840000       0.44550000
N        2.57450000       2.64620000       0.36100000
C        1.14720000       2.26630000       0.16920000
C        0.65380000       3.26150000       1.27270000
H       -1.33560000       4.14060000       0.37370000
H        0.76780000       3.66700000      -1.71240000
H        2.26560000       4.90350000       0.61660000
H        3.07810000       2.59360000      -0.52870000
H        0.64920000       3.04160000       2.33820000
