17
Properties=species:S:1:pos:R:3 pbc="F F F"
N       -0.01280000       1.15740000       0.71700000
C       -0.05490000       0.06220000       0.10860000
C       -1.15040000      -0.90620000      -0.27880000
C        0.00800000      -1.71710000      -0.89840000
C        0.27030000      -3.18100000      -0.50280000
C       -0.22400000      -3.59390000      -1.91910000
C        0.00370000      -2.12610000      -2.38190000
O        0.95330000      -0.69220000      -0.45710000
H        0.94480000       1.50810000       0.77790000
H       -1.66520000      -1.37380000       0.56280000
H       -1.88460000      -0.50750000      -0.98140000
H        1.34330000      -3.35320000      -0.38170000
H       -0.25470000      -3.57220000       0.37180000
H        0.34040000      -4.37140000      -2.43560000
H       -1.28180000      -3.86810000      -1.92290000
H       -0.73790000      -1.65990000      -3.03480000
H        0.99810000      -1.98730000      -2.81510000
