18
Properties=species:S:1:pos:R:3 pbc="F F F"
C       -0.44050000       1.52640000       0.11290000
C        0.03310000       0.09570000      -0.01600000
C       -0.60420000      -0.99010000       0.83700000
C        0.80830000      -0.53880000       1.09770000
O        1.90920000      -1.38170000       0.83270000
C        2.05480000      -1.99160000      -0.37380000
O        2.88710000      -2.84940000      -0.52310000
N        1.18200000      -1.59330000      -1.35990000
C        0.50930000      -0.30170000      -1.39900000
H        0.33870000       2.23300000      -0.19490000
H       -1.32390000       1.70700000      -0.51080000
H       -0.71430000       1.75810000       1.14620000
H       -1.36660000      -0.70030000       1.55210000
H       -0.74280000      -1.96860000       0.39140000
H        1.02120000       0.03000000       1.99530000
H        1.40430000      -2.02250000      -2.24510000
H       -0.33490000      -0.37530000      -2.09540000
H        1.17620000       0.48760000      -1.78160000
