15
Properties=species:S:1:pos:R:3 pbc="F F F"
O       -0.17650000       1.06520000       0.94950000
N       -0.10970000      -0.21160000       0.43820000
C       -1.16130000      -0.60330000      -0.17460000
C       -1.09840000      -2.00350000      -0.75890000
O       -2.39430000      -2.59690000      -0.84530000
C       -3.28060000      -2.04660000       0.06970000
O       -3.55420000      -0.67970000      -0.23890000
C       -2.45140000       0.12680000      -0.34820000
N       -2.53180000       1.35950000      -0.61290000
H        0.67400000       1.15180000       1.39610000
H       -0.71220000      -1.97130000      -1.78380000
H       -0.42130000      -2.62040000      -0.15580000
H       -4.23070000      -2.57280000      -0.02250000
H       -2.90070000      -2.11560000       1.10150000
H       -3.51390000       1.62810000      -0.71430000
