17
Properties=species:S:1:pos:R:3 pbc="F F F"
C       -0.10360000       1.56230000       0.00610000
C       -0.01170000       0.03930000      -0.02290000
C        0.74700000      -0.52400000       1.18450000
C        0.93660000      -2.02660000       1.11960000
O        2.00250000      -2.57530000       1.23780000
O       -1.32630000      -0.54020000       0.01770000
C       -1.98120000      -0.67380000      -1.15390000
N       -3.18650000      -1.04500000      -1.16380000
H        0.89520000       2.00820000      -0.01690000
H       -0.66360000       1.93310000      -0.85760000
H       -0.61570000       1.89400000       0.91410000
H        0.48740000      -0.28270000      -0.94880000
H        1.72920000      -0.05310000       1.27330000
H        0.16430000      -0.29040000       2.08600000
H        0.00360000      -2.60530000       0.95310000
H       -1.35870000      -0.44940000      -2.03180000
H       -3.51850000      -1.12380000      -2.12270000
