17
Properties=species:S:1:pos:R:3 pbc="F F F"
O        0.44120000       0.06070000      -0.16770000
C        0.19010000       1.21890000       0.00590000
C       -1.14870000       2.01050000       0.03190000
C       -0.30460000       3.29780000      -0.00160000
C        0.56620000       3.35000000       1.19770000
C        1.01720000       2.46570000       0.03630000
C       -0.59120000       4.46950000      -0.86670000
C       -1.02480000       5.76400000      -0.31620000
O        0.31620000       5.56840000      -0.77100000
H       -1.70520000       1.81820000      -0.89110000
H       -1.81650000       1.87780000       0.88790000
H        1.16420000       4.24960000       1.29820000
H        0.24880000       2.90130000       2.13510000
H        1.96830000       2.63470000      -0.45310000
H       -0.89270000       4.22810000      -1.88760000
H       -1.63060000       6.43360000      -0.92430000
H       -1.13930000       5.87030000       0.76110000
