18
Properties=species:S:1:pos:R:3 pbc="F F F"
O        0.07080000       0.07840000       0.35360000
C        0.06510000       1.25200000       0.11260000
N       -1.01750000       2.17280000      -0.03880000
C       -1.69140000       2.60150000       1.23480000
C       -0.65050000       3.74650000       1.41270000
C       -0.05430000       3.33910000       0.03310000
C        1.10410000       2.34460000      -0.00890000
C        2.45000000       2.35250000       0.67070000
C        2.37230000       2.33950000      -0.82610000
H       -2.71280000       2.94200000       1.04990000
H       -1.70820000       1.81670000       1.99510000
H       -1.06870000       4.75360000       1.45580000
H        0.03610000       3.61160000       2.25180000
H       -0.11590000       4.07680000      -0.76970000
H        2.75050000       3.27100000       1.16400000
H        2.73740000       1.43930000       1.18100000
H        2.61420000       1.42060000      -1.34900000
H        2.61710000       3.24990000      -1.36270000
