13
Properties=species:S:1:pos:R:3 pbc="F F F"
N        0.06510000       1.34300000       0.18210000
C       -0.03990000      -0.02210000       0.06090000
C       -1.13160000      -0.86100000       0.02200000
C       -0.57400000      -2.19650000      -0.01760000
C        0.76800000      -2.05990000      -0.01050000
O        1.10910000      -0.72150000       0.04180000
C       -2.47950000      -0.45210000       0.01470000
C       -3.62650000      -0.07760000       0.00090000
H        0.86880000       1.74290000      -0.28300000
H       -0.79470000       1.82290000      -0.04570000
H       -1.13300000      -3.11760000      -0.05490000
H        1.59770000      -2.74410000      -0.03650000
H       -4.63880000       0.24080000       0.00050000
