15
Properties=species:S:1:pos:R:3 pbc="F F F"
O       -0.17970000      -0.02290000      -0.14680000
C        0.01380000       1.16120000      -0.05230000
C        1.36230000       1.83250000      -0.19850000
C        1.35510000       2.90310000      -1.29160000
C        0.60720000       4.23290000      -1.02510000
O        1.79640000       5.00420000      -1.27890000
C        2.59900000       3.81390000      -1.40630000
H       -0.83060000       1.86170000       0.15050000
H        1.60980000       2.30510000       0.76340000
H        2.11100000       1.06100000      -0.40310000
H        1.07950000       2.45650000      -2.25050000
H       -0.20560000       4.48790000      -1.71460000
H        0.24940000       4.36100000       0.00670000
H        3.31670000       3.71130000      -0.58040000
H        3.14380000       3.78220000      -2.35670000
