18
Properties=species:S:1:pos:R:3 pbc="F F F"
C       -0.37330000       1.35760000       0.26410000
C       -0.04340000      -0.08590000      -0.01960000
C        0.71540000      -0.53390000      -1.25430000
C        1.31740000       0.39860000      -2.23710000
C        2.55310000       0.86440000      -2.04390000
C        3.35380000       0.49170000      -0.81210000
C        2.39870000       0.28600000       0.36140000
O        2.53400000       0.81000000       1.44260000
N        1.33310000      -0.56840000       0.06350000
H        0.26470000       2.03640000      -0.30720000
H       -1.41660000       1.55890000       0.00210000
H       -0.23240000       1.57750000       1.32630000
H       -0.76500000      -0.80130000       0.37260000
H        0.44280000      -1.51390000      -1.64990000
H        0.74960000       0.64720000      -3.12880000
H        3.01420000       1.53450000      -2.76400000
H        3.93140000      -0.42500000      -0.99320000
H        4.06390000       1.27290000      -0.53390000
