19
Properties=species:S:1:pos:R:3 pbc="F F F"
C       -0.20340000       1.46770000       0.06040000
C       -0.00960000      -0.00740000      -0.06610000
C        0.17450000      -0.82730000      -1.16020000
C        0.22390000      -0.42430000      -2.59520000
O       -0.88110000      -1.01070000      -3.28990000
C        0.28810000      -2.17250000      -0.67930000
C        0.18140000      -2.13320000       0.68770000
N        0.27630000      -3.11720000       1.69490000
N        0.00340000      -0.81870000       1.05130000
H        0.60370000       1.94850000       0.62910000
H       -0.23010000       1.93600000      -0.92560000
H       -1.14670000       1.71370000       0.56460000
H        0.20340000       0.67290000      -2.68320000
H        1.17130000      -0.76250000      -3.04640000
H       -0.75610000      -0.83790000      -4.22870000
H        0.39670000      -3.05980000      -1.28450000
H        0.68030000      -3.96600000       1.31820000
H       -0.63260000      -3.35970000       2.08070000
H        0.00150000      -0.50080000       2.00550000
