14
Properties=species:S:1:pos:R:3 pbc="F F F"
C        0.03710000       1.50510000      -0.00670000
C       -0.09330000       0.02290000       0.07080000
C       -1.15380000      -0.72600000      -0.28620000
N       -1.16090000      -2.10160000      -0.16870000
C       -0.10720000      -2.66780000       0.30060000
O       -0.03220000      -3.99590000       0.44560000
C        1.11900000      -1.94910000       0.72620000
O        2.11870000      -2.43830000       1.16720000
O        1.02540000      -0.58430000       0.56940000
H        0.87760000       1.78870000      -0.64950000
H       -0.87710000       1.94560000      -0.40910000
H        0.22740000       1.93140000       0.98430000
H       -2.04940000      -0.26590000      -0.68310000
H       -0.87890000      -4.35330000       0.13940000
