18
Properties=species:S:1:pos:R:3 pbc="F F F"
C        0.01100000      -1.20970000       0.06250000
C       -0.03240000      -0.00930000       0.02920000
C       -0.06380000       1.44700000      -0.02660000
C        1.33680000       2.07220000      -0.00190000
C        1.53920000       3.59810000      -0.10530000
C        0.72870000       4.16510000       1.09130000
C        1.69770000       3.37730000       1.97120000
C        2.72680000       3.35020000       0.90690000
N        2.07540000       2.07360000       1.30650000
H        0.04560000      -2.26990000       0.10280000
H       -0.56870000       1.76950000      -0.94800000
H       -0.66320000       1.83050000       0.80570000
H        1.97760000       1.54970000      -0.71830000
H        1.56700000       4.11780000      -1.06140000
H        0.90350000       5.23790000       1.20760000
H       -0.34620000       3.96590000       1.14310000
H        1.82190000       3.40600000       3.04530000
H        3.79570000       3.51480000       0.88730000
