21
Properties=species:S:1:pos:R:3 pbc="F F F"
C       -0.04640000       1.62570000      -0.06960000
C        0.00710000       0.09600000      -0.02180000
C        0.98110000      -0.48660000      -1.11920000
C        2.31690000      -0.67630000      -0.39540000
C        2.08710000      -0.68160000       0.91270000
C        2.53930000      -0.36020000       2.31070000
C        2.17840000       1.08990000       2.55320000
C        1.08010000       0.06910000       2.63390000
C        0.63590000      -0.50890000       1.25780000
H        0.95540000       2.06590000      -0.05570000
H       -0.53840000       1.96280000      -0.98830000
H       -0.60470000       2.03260000       0.77970000
H       -1.00670000      -0.28770000      -0.17880000
H        0.59730000      -1.43500000      -1.52220000
H        1.07420000       0.19340000      -1.97500000
H        3.26620000      -0.74010000      -0.91460000
H        3.25830000      -0.88460000       2.92710000
H        2.49620000       1.48110000       3.51580000
H        2.24030000       1.80760000       1.74280000
H        0.53830000      -0.08700000       3.55920000
H        0.18390000      -1.48960000       1.46340000
