20
Properties=species:S:1:pos:R:3 pbc="F F F"
C        0.14570000       1.62650000      -0.04710000
C        0.09620000       0.09940000       0.02520000
C        0.70800000      -0.59960000      -1.18300000
C        2.21070000      -0.56040000      -1.31940000
C        1.54310000      -1.75730000      -0.69360000
C        1.46490000      -1.76990000       0.82040000
N        0.85990000      -0.47510000       1.14870000
C        0.88780000      -0.00620000       2.42170000
O        1.43920000      -0.56700000       3.34950000
H        1.17870000       1.98330000      -0.08300000
H       -0.36540000       1.95940000      -0.95580000
H       -0.35580000       2.09890000       0.80160000
H       -0.95840000      -0.21150000       0.09530000
H        0.09760000      -0.67250000      -2.07540000
H        2.61900000      -0.67950000      -2.31660000
H        2.77960000       0.10510000      -0.67740000
H        1.55440000      -2.70780000      -1.21260000
H        0.83680000      -2.59900000       1.17440000
H        2.43080000      -1.85390000       1.32590000
H        0.35940000       0.95800000       2.53800000
