19
Properties=species:S:1:pos:R:3 pbc="F F F"
C        0.64320000       1.34170000      -0.74700000
C        0.27030000       0.00830000      -0.29670000
C       -0.03390000      -1.09830000       0.07120000
C       -0.41710000      -2.41640000       0.53250000
C       -0.32010000      -2.74440000       2.05630000
C       -1.66410000      -3.54040000       1.94480000
C       -1.93310000      -2.78540000       0.59940000
C       -1.49370000      -4.97390000       1.79650000
C       -1.34090000      -6.15940000       1.66070000
H        1.37550000       1.29850000      -1.56090000
H       -0.22730000       1.89620000      -1.11530000
H        1.08700000       1.92760000       0.06570000
H        0.11540000      -3.18680000      -0.03530000
H        0.55820000      -3.29510000       2.39490000
H       -0.44680000      -1.84530000       2.66290000
H       -2.38680000      -3.33460000       2.73910000
H       -2.54870000      -1.89870000       0.76440000
H       -2.34310000      -3.36880000      -0.22570000
H       -1.21370000      -7.20750000       1.54930000
