15
Properties=species:S:1:pos:R:3 pbc="F F F"
O       -0.14820000       1.50360000       0.10100000
C       -0.00940000       0.10840000      -0.00020000
C       -1.32920000      -0.66210000       0.06580000
C       -2.20190000      -0.29540000      -1.05560000
C       -1.05900000      -1.27660000      -1.37420000
C       -1.34980000      -2.64910000      -1.83460000
O       -2.38000000      -3.23490000      -1.59440000
C        0.23530000      -0.52970000      -1.40530000
O        1.18530000      -0.53670000      -2.13820000
H        0.68100000       1.90310000      -0.18500000
H        0.73450000      -0.29010000       0.70680000
H       -1.66580000      -1.25480000       0.90540000
H       -3.16900000      -0.78540000      -1.09540000
H       -2.15490000       0.70270000      -1.47570000
H       -0.53120000      -3.12410000      -2.41370000
