27
Properties=species:S:1:pos:R:3 pbc="F F F"
C        2.91200000       1.69650000      -0.24760000
C        1.98990000       0.47300000      -0.26380000
C        2.54290000      -0.74630000      -1.03130000
C        3.82570000      -1.29630000      -0.38800000
C        1.48010000      -1.83120000      -1.12290000
C        0.28210000      -1.68190000      -2.02990000
C        1.29380000      -2.76860000      -2.30300000
C        2.13310000      -2.74480000      -3.56660000
C        3.30220000      -3.73680000      -3.54690000
H        3.84920000       1.50030000       0.28200000
H        3.16690000       2.01270000      -1.26590000
H        2.42790000       2.54330000       0.24930000
H        1.76400000       0.17010000       0.76830000
H        1.02980000       0.75470000      -0.71190000
H        2.78640000      -0.40760000      -2.04790000
H        4.19080000      -2.17740000      -0.92300000
H        4.63010000      -0.55520000      -0.38040000
H        3.63870000      -1.59490000       0.65090000
H        1.26670000      -2.28600000      -0.15620000
H       -0.70280000      -1.94970000      -1.66240000
H        0.28180000      -0.83370000      -2.70970000
H        0.97520000      -3.77280000      -2.02830000
H        1.48220000      -2.98000000      -4.41950000
H        2.50850000      -1.73190000      -3.75200000
H        3.85590000      -3.71500000      -4.49100000
H        4.00730000      -3.51370000      -2.74030000
H        2.94390000      -4.76130000      -3.39600000
