20
Properties=species:S:1:pos:R:3 pbc="F F F"
C       -0.12730000       1.54000000      -0.08660000
C        0.04440000       0.01890000       0.00400000
N        0.68220000      -0.46200000      -1.22370000
C        1.86410000      -0.90040000      -1.17780000
O        2.71800000      -0.97270000      -0.12550000
C        2.27440000      -0.31880000       1.06240000
C        0.76580000      -0.48590000       1.27580000
C        0.32390000       0.21180000       2.56380000
O        0.43990000      -1.87610000       1.33530000
H        0.83280000       2.06140000      -0.00290000
H       -0.55180000       1.79000000      -1.06190000
H       -0.79730000       1.91880000       0.68970000
H       -0.95380000      -0.43480000       0.02650000
H        2.34670000      -1.30270000      -2.06660000
H        2.84220000      -0.76570000       1.88550000
H        2.53800000       0.74590000       1.00760000
H        0.58070000       1.27450000       2.57070000
H       -0.75770000       0.11280000       2.69160000
H        0.80760000      -0.25530000       3.43030000
H        0.96210000      -2.28080000       2.03660000
