12
Properties=species:S:1:pos:R:3 pbc="F F F"
N        0.00600000       1.37570000      -0.08290000
C        0.02760000      -0.00640000      -0.03480000
N       -1.14730000      -0.63700000       0.00900000
N       -1.18470000      -1.96410000      -0.01960000
C       -0.02890000      -2.61370000      -0.07280000
O       -0.10970000      -3.95370000      -0.09560000
N        1.19530000      -2.06570000      -0.10010000
C        1.22290000      -0.74850000      -0.08710000
H        0.78100000       1.84880000       0.35700000
H       -0.89290000       1.76250000       0.17110000
H        0.79770000      -4.28290000      -0.13250000
H        2.19570000      -0.26090000      -0.11610000
