19
Properties=species:S:1:pos:R:3 pbc="F F F"
C        0.03680000       1.47340000       0.02500000
C       -0.02610000      -0.02840000       0.00420000
O        0.93650000      -0.62260000      -0.84010000
C        0.27280000      -1.61220000      -1.63520000
C       -0.85080000      -2.14640000      -0.72030000
C       -0.20120000      -2.95880000       0.39110000
C        0.06080000      -2.19300000       1.45120000
C       -0.46070000      -0.81030000       1.26480000
C       -1.28200000      -0.83410000      -0.01810000
H        1.01810000       1.81270000       0.37220000
H       -0.12720000       1.88300000      -0.97740000
H       -0.72290000       1.88470000       0.69590000
H       -0.13940000      -1.16100000      -2.55230000
H        1.01390000      -2.36650000      -1.91470000
H       -1.64150000      -2.66010000      -1.27300000
H        0.13040000      -3.98070000       0.24700000
H        0.61030000      -2.49860000       2.33370000
H       -0.77440000      -0.21900000       2.11930000
H       -2.27770000      -0.41820000      -0.11470000
