19
Properties=species:S:1:pos:R:3 pbc="F F F"
C       -0.21320000       1.31750000       0.09530000
O        0.32990000       0.03080000      -0.10430000
C        0.86480000      -0.53060000       1.06730000
C       -0.17280000      -1.25710000       1.99330000
C       -0.15830000      -2.39450000       0.90860000
C        1.35490000      -1.97820000       0.80770000
C        1.83060000      -2.41360000       2.20940000
O        2.07550000      -1.35490000       3.15250000
C        0.74670000      -1.90100000       3.05020000
H        0.53670000       2.01320000       0.50180000
H       -0.54350000       1.68290000      -0.87990000
H       -1.07530000       1.30390000       0.77840000
H        1.55740000       0.16380000       1.54920000
H       -1.09090000      -0.77770000       2.33110000
H       -0.37950000      -3.41160000       1.24450000
H       -0.72930000      -2.14340000       0.01570000
H        1.97570000      -2.21570000      -0.05510000
H        2.37560000      -3.33670000       2.37420000
H        0.35980000      -2.38040000       3.94310000
