18
Properties=species:S:1:pos:R:3 pbc="F F F"
C       -0.07130000       1.55610000      -0.04120000
C        0.01150000       0.04540000      -0.03830000
C       -1.18070000      -0.66030000       0.58190000
C        0.67170000      -0.72220000      -1.18800000
N        1.62590000      -0.04790000      -2.00930000
C        2.67470000       0.47400000      -1.28090000
O        3.56520000       1.18110000      -1.65740000
O        2.53580000       0.05250000       0.02430000
C        1.33090000      -0.66990000       0.16770000
H        0.78930000       2.03090000      -0.51550000
H       -0.97120000       1.88690000      -0.57170000
H       -0.13050000       1.93610000       0.98440000
H       -2.10200000      -0.41290000       0.04280000
H       -1.06570000      -1.74920000       0.55980000
H       -1.31110000      -0.36120000       1.62770000
H        0.21360000      -1.61630000      -1.59720000
H        1.41500000       0.36010000      -2.90450000
H        1.42620000      -1.51190000       0.84260000
