19
Properties=species:S:1:pos:R:3 pbc="F F F"
C        0.02360000       1.50500000      -0.18370000
C        0.01780000       0.00460000       0.02460000
C       -1.15530000      -0.66200000       0.12720000
C       -1.31510000      -2.15950000       0.13060000
O       -0.97140000      -2.75690000      -1.12530000
C       -0.55820000      -2.77270000       1.28050000
C        0.77160000      -2.64200000       1.46610000
C        1.65740000      -1.76730000       0.74360000
C        1.32360000      -0.61520000       0.10300000
H        0.55590000       2.01950000       0.62460000
H        0.53700000       1.76540000      -1.11750000
H       -0.99060000       1.90740000      -0.23560000
H       -2.07420000      -0.08060000       0.12810000
H       -2.37680000      -2.39260000       0.24670000
H       -0.03660000      -2.57480000      -1.27430000
H       -1.11670000      -3.42090000       1.95050000
H        1.23930000      -3.25210000       2.23620000
H        2.71610000      -2.01000000       0.79930000
H        2.14470000      -0.02530000      -0.30030000
