21
Properties=species:S:1:pos:R:3 pbc="F F F"
C       -0.08270000       1.49890000       0.08630000
C       -0.03870000      -0.00180000       0.00920000
C       -0.03410000      -0.66780000      -1.14840000
C        0.07200000      -2.16960000      -1.28440000
C        1.40890000      -2.74660000      -0.77520000
C        1.56520000      -2.76650000       0.76100000
C        1.41740000      -1.41800000       1.45430000
O        2.32840000      -0.90490000       2.06230000
C        0.05300000      -0.73520000       1.34170000
H        0.80010000       1.88500000       0.61140000
H       -0.11940000       1.95430000      -0.90680000
H       -0.95730000       1.84020000       0.65500000
H       -0.08510000      -0.09620000      -2.07230000
H       -0.75470000      -2.66390000      -0.75160000
H       -0.04600000      -2.44130000      -2.33780000
H        1.51410000      -3.77890000      -1.12980000
H        2.23510000      -2.17710000      -1.21580000
H        0.80030000      -3.43660000       1.17930000
H        2.54590000      -3.16650000       1.03210000
H       -0.04270000      -0.03630000       2.17490000
H       -0.74600000      -1.48300000       1.41930000
