16
Properties=species:S:1:pos:R:3 pbc="F F F"
C        0.13620000       1.30050000      -0.32360000
N       -0.11690000       0.02570000       0.34150000
C       -1.42420000      -0.51860000       0.12950000
C       -1.84770000      -1.06950000      -1.24870000
C       -1.52340000      -2.02110000      -0.14980000
O       -0.33070000      -2.73030000      -0.27250000
C       -2.46580000       0.06540000       0.94250000
N       -3.31680000       0.52380000       1.57870000
H        1.16550000       1.60800000      -0.12170000
H       -0.01470000       1.27400000      -1.41550000
H       -0.52900000       2.06550000       0.08910000
H        0.56560000      -0.67470000       0.07290000
H       -2.87980000      -0.97400000      -1.56440000
H       -1.10500000      -0.95870000      -2.03120000
H       -2.34220000      -2.55590000       0.32570000
H       -0.09070000      -3.06820000       0.59820000
