16
Properties=species:S:1:pos:R:3 pbc="F F F"
N       -0.08080000       1.28920000      -0.05610000
C        0.01190000      -0.05900000      -0.05780000
O        1.04730000      -0.70270000      -0.09770000
C       -1.32110000      -0.74320000       0.00220000
N       -2.46410000      -0.14070000       0.05440000
C       -3.46330000      -1.17730000       0.04970000
C       -3.53210000      -2.09440000      -1.15490000
C       -2.71490000      -2.53270000       0.03220000
N       -1.35110000      -2.10270000       0.04460000
H        0.75670000       1.84540000      -0.05410000
H       -0.99240000       1.71510000       0.00270000
H       -4.36680000      -0.98660000       0.61710000
H       -4.47590000      -2.60710000      -1.30220000
H       -3.01640000      -1.79940000      -2.06280000
H       -2.97000000      -3.40960000       0.61550000
H       -0.52200000      -2.66980000       0.00640000
