21
Properties=species:S:1:pos:R:3 pbc="F F F"
C       -0.32800000       1.44980000      -0.82540000
C       -0.10400000       0.12210000      -0.13940000
C        1.25750000      -0.52310000      -0.17740000
C        0.71940000       0.04690000       1.12080000
O        1.24010000       1.23800000       1.63500000
O       -1.14840000      -0.81650000      -0.23450000
C       -2.31310000      -0.47000000       0.46100000
C       -3.46430000       0.16250000      -0.27840000
C       -3.52190000      -1.29070000       0.15110000
H        0.53300000       2.10240000      -0.67100000
H       -0.47700000       1.30290000      -1.90000000
H       -1.20830000       1.95830000      -0.42200000
H        1.29550000      -1.60140000      -0.28080000
H        2.05080000       0.02650000      -0.67330000
H        0.38690000      -0.67630000       1.86540000
H        2.14000000       1.06530000       1.93110000
H       -2.13930000      -0.16800000       1.49290000
H       -4.08180000       0.88870000       0.23950000
H       -3.31930000       0.35570000      -1.33500000
H       -3.40690000      -2.03850000      -0.62530000
H       -4.17960000      -1.57530000       0.96450000
