19
Properties=species:S:1:pos:R:3 pbc="F F F"
C        0.00150000       1.43940000      -0.10350000
O        1.45520000       1.44090000      -0.17430000
C        1.47420000       0.02930000       0.04450000
C       -0.03560000      -0.07920000       0.03520000
C        0.78970000      -0.71270000      -1.06690000
C        0.85390000      -0.23340000      -2.52200000
C        1.35420000      -1.45810000      -3.24900000
C        1.39870000      -2.53500000      -2.46700000
C        0.93270000      -2.24390000      -1.06010000
H       -0.33450000       1.97080000       0.79360000
H       -0.45960000       1.88470000      -0.99300000
H        2.24820000      -0.37650000       0.68790000
H       -0.71020000      -0.64550000       0.66470000
H       -0.13030000       0.07570000      -2.90430000
H        1.51340000       0.63530000      -2.62690000
H        1.61980000      -1.43860000      -4.30030000
H        1.70390000      -3.52720000      -2.78010000
H        1.63880000      -2.59710000      -0.29660000
H       -0.02120000      -2.74930000      -0.84810000
