18
Properties=species:S:1:pos:R:3 pbc="F F F"
O        0.29480000       0.06320000      -0.83220000
C        0.18020000       1.12160000      -0.27930000
C        1.36800000       2.00640000       0.15100000
C        2.72310000       1.22750000       0.13810000
C        3.59430000       1.90830000      -0.93850000
C        2.57940000       2.53930000      -1.90220000
C        1.51620000       3.11440000      -0.95940000
C        1.04120000       2.59780000       1.44530000
N        0.76170000       3.06180000       2.46700000
H       -0.81300000       1.57620000      -0.08060000
H        3.19040000       1.22590000       1.12370000
H        2.50460000       0.19290000      -0.13630000
H        4.21180000       2.69320000      -0.48710000
H        4.27020000       1.20230000      -1.42740000
H        3.01140000       3.30510000      -2.55150000
H        2.13690000       1.76860000      -2.54350000
H        0.56150000       3.34300000      -1.44280000
H        1.87200000       4.03570000      -0.48940000
