16
Properties=species:S:1:pos:R:3 pbc="F F F"
C        0.12140000       1.31900000       0.10710000
O       -0.30580000       0.01880000      -0.22750000
C        0.50230000      -0.59700000      -1.18500000
C        1.92600000      -1.15840000      -0.78290000
C        1.45350000      -2.52320000      -1.29240000
N        0.31860000      -2.89500000      -0.41940000
C        0.08440000      -2.00600000      -1.58440000
H        1.12670000       1.32070000       0.55490000
H        0.13650000       1.98280000      -0.77270000
H       -0.58780000       1.71690000       0.83670000
H        0.59910000       0.03980000      -2.07900000
H        2.73980000      -0.70980000      -1.35580000
H        2.15320000      -1.13680000       0.28520000
H        2.02890000      -3.27350000      -1.81940000
H        0.00860000      -3.82370000      -0.70590000
H       -0.62450000      -2.28180000      -2.35550000
