18
Properties=species:S:1:pos:R:3 pbc="F F F"
C       -0.39910000       1.57460000       0.07810000
C        0.12950000       0.13980000      -0.09070000
C        0.76060000      -0.41730000       1.15040000
C        2.07950000      -0.66260000       1.36820000
O        3.14560000      -0.48850000       0.56220000
O        2.32140000      -1.15570000       2.60310000
C        1.07680000      -1.24040000       3.24300000
N        1.02400000      -1.72900000       4.54550000
C        0.12350000      -0.79920000       2.38920000
H        0.41240000       2.26050000       0.34030000
H       -0.86500000       1.93290000      -0.84580000
H       -1.14800000       1.62810000       0.87510000
H       -0.69740000      -0.50950000      -0.40720000
H        0.86440000       0.11600000      -0.90250000
H        3.92320000      -0.83040000       1.01760000
H        1.55750000      -1.16390000       5.19900000
H        1.35230000      -2.68700000       4.62020000
H       -0.93130000      -0.75490000       2.61410000
