22
Properties=species:S:1:pos:R:3 pbc="F F F"
C        0.17840000       1.54920000      -0.14950000
C        0.06840000       0.05390000       0.07150000
C       -1.09460000      -0.59370000      -0.65880000
N        1.35120000      -0.68630000       0.09390000
C        0.53930000      -0.61640000       1.31970000
C        1.15820000       0.01790000       2.54450000
C        2.41390000      -0.70720000       3.09440000
C        3.15030000       0.59190000       2.71840000
O        1.91890000       1.22250000       2.30820000
H        1.05530000       1.95270000       0.35240000
H        0.24650000       1.76210000      -1.22280000
H       -0.71220000       2.06060000       0.23390000
H       -0.99910000      -0.44540000      -1.74110000
H       -1.14490000      -1.67080000      -0.46590000
H       -2.04910000      -0.15220000      -0.35110000
H        1.24190000      -1.59420000      -0.35200000
H       -0.01970000      -1.51320000       1.59770000
H        0.36960000       0.19940000       3.28840000
H        2.38600000      -0.93500000       4.16090000
H        2.71190000      -1.59470000       2.53450000
H        3.62690000       1.13540000       3.54260000
H        3.85470000       0.50330000       1.88410000
