18
Properties=species:S:1:pos:R:3 pbc="F F F"
N       -0.32580000       0.97680000      -0.89480000
C       -0.20910000      -0.13430000      -0.30950000
O       -1.25470000      -0.99080000      -0.28070000
C       -0.99530000      -2.28130000       0.28030000
C       -2.34020000      -3.02530000       0.36700000
C       -2.33310000      -3.92280000      -0.86110000
C       -2.01700000      -3.27290000      -2.19910000
C       -0.92250000      -3.88330000      -1.36860000
O       -0.14530000      -3.03420000      -0.54440000
H        0.53790000       1.50800000      -0.80210000
H        0.67900000      -0.50800000       0.21540000
H       -0.48420000      -2.14750000       1.24030000
H       -2.36940000      -3.63370000       1.27580000
H       -3.16350000      -2.30930000       0.40290000
H       -2.90800000      -4.84040000      -0.83620000
H       -2.31820000      -3.81660000      -3.08840000
H       -2.06250000      -2.19370000      -2.28100000
H       -0.35550000      -4.74350000      -1.70130000
