17
Properties=species:S:1:pos:R:3 pbc="F F F"
C        0.30220000       1.39020000      -0.39980000
C       -0.12040000       0.05550000       0.20070000
O       -0.06970000      -0.96980000      -0.80780000
C        1.07190000      -1.68400000      -0.66120000
N        1.46000000      -2.51930000      -1.51730000
O        1.69230000      -1.35370000       0.50810000
C        0.80120000      -0.53480000       1.28850000
C        1.60090000       0.42630000       2.14570000
H        1.34060000       1.35990000      -0.74230000
H       -0.33370000       1.61860000      -1.25850000
H        0.19780000       2.19750000       0.33120000
H       -1.15520000       0.10700000       0.54970000
H        2.30980000      -2.97600000      -1.19440000
H        0.21190000      -1.20330000       1.93060000
H        2.22520000       1.08200000       1.53480000
H        0.92850000       1.04290000       2.75040000
H        2.24990000      -0.13240000       2.82470000
