20
Properties=species:S:1:pos:R:3 pbc="F F F"
C       -0.09520000       1.55650000       0.06790000
C        0.01410000       0.02930000      -0.01240000
C        0.75110000      -0.48950000      -1.25390000
C        2.23990000      -0.11230000      -1.27700000
O        2.90010000      -0.70810000      -2.38600000
C        2.75020000      -2.10160000      -2.37710000
O        1.41060000      -2.50560000      -2.46350000
C        0.66000000      -2.01830000      -1.35980000
H        0.88620000       2.03450000       0.14820000
H       -0.59070000       1.96350000      -0.82020000
H       -0.67810000       1.86010000       0.94270000
H        0.51140000      -0.35150000       0.89030000
H       -0.99570000      -0.40170000      -0.00270000
H        0.28870000      -0.06810000      -2.15600000
H        2.38890000       0.96540000      -1.37570000
H        2.71780000      -0.43840000      -0.33520000
H        3.26010000      -2.48580000      -3.26270000
H        3.20780000      -2.52030000      -1.45830000
H        1.02720000      -2.47840000      -0.42450000
H       -0.37180000      -2.34700000      -1.51410000
