19
Properties=species:S:1:pos:R:3 pbc="F F F"
C       -0.04550000      -1.10390000      -0.04630000
C       -0.00050000       0.09730000       0.00130000
C        0.04810000       1.53120000       0.05470000
C        0.57590000       2.15210000       1.33640000
C        1.42580000       2.17050000       0.06860000
C        1.35500000       3.71410000       0.02480000
C        0.19600000       4.41500000      -0.74710000
C       -0.67600000       4.39610000       0.55370000
C        0.48780000       3.69530000       1.31850000
H       -0.08890000      -2.16360000      -0.09070000
H       -0.76150000       2.01750000      -0.48100000
H        0.67910000       1.53800000       2.22250000
H        2.29280000       1.57300000      -0.18480000
H        2.33160000       4.19830000       0.00970000
H        0.45300000       5.42420000      -1.07730000
H       -0.20310000       3.87100000      -1.60720000
H       -0.89740000       5.39490000       0.93700000
H       -1.61590000       3.84030000       0.50020000
H        0.83830000       4.16590000       2.23720000
