16
Properties=species:S:1:pos:R:3 pbc="F F F"
N       -0.09710000       1.47290000       0.05940000
C        0.01780000       0.01090000       0.00680000
C        0.69340000      -0.50250000      -1.19990000
C        1.22340000      -0.89760000      -2.20470000
C        0.73650000      -0.45750000       1.24930000
N        1.63520000       0.23600000       1.90780000
C        2.05270000      -0.57750000       2.93680000
C        1.39830000      -1.77830000       2.89260000
N        0.55350000      -1.68720000       1.80630000
H        0.78070000       1.83790000       0.42150000
H       -0.21450000       1.83320000      -0.88210000
H       -0.99720000      -0.41490000       0.01990000
H        1.70370000      -1.24420000      -3.08620000
H        2.79400000      -0.24860000       3.64850000
H        1.43980000      -2.65900000       3.51120000
H       -0.06840000      -2.40540000       1.47420000
