17
Properties=species:S:1:pos:R:3 pbc="F F F"
O        0.67020000       0.70330000       0.74650000
C        0.21050000      -0.37520000      -0.00920000
C       -1.32720000      -0.55230000      -0.07010000
C       -1.52580000      -1.46190000      -1.30290000
C       -0.44470000      -1.02390000      -2.31780000
C        0.56840000      -0.24540000      -1.49080000
O        1.46340000       0.46620000      -1.87410000
C       -1.88490000      -1.09990000       1.22340000
O       -2.34280000      -2.20790000       1.34960000
H        1.33510000       1.14460000       0.19460000
H        0.64720000      -1.32840000       0.34670000
H       -1.75250000       0.44870000      -0.22750000
H       -1.38960000      -2.50210000      -0.99630000
H       -2.53680000      -1.38280000      -1.70580000
H        0.03730000      -1.85690000      -2.83860000
H       -0.83300000      -0.35550000      -3.09350000
H       -1.82050000      -0.40160000       2.08550000
