18
Properties=species:S:1:pos:R:3 pbc="F F F"
N       -0.08440000       1.32690000       0.28180000
C        0.10590000       0.01380000      -0.04190000
O        1.20330000      -0.45130000      -0.29930000
C       -1.17250000      -0.79400000      -0.06080000
O       -2.34190000      -0.02780000       0.15830000
C       -1.42550000      -2.01340000      -0.92290000
C       -0.19100000      -2.90400000      -1.11230000
C       -0.07030000      -3.03090000       0.44310000
C       -1.31660000      -2.15120000       0.59510000
H        0.73920000       1.87940000       0.45710000
H       -0.96650000       1.60800000       0.67610000
H       -2.61400000       0.34180000      -0.68930000
H       -2.31710000      -2.01430000      -1.54150000
H       -0.45730000      -3.85470000      -1.58070000
H        0.65610000      -2.45960000      -1.63230000
H       -0.25330000      -4.04970000       0.79170000
H        0.84990000      -2.65270000       0.88880000
H       -2.10560000      -2.26060000       1.32950000
