17
Properties=species:S:1:pos:R:3 pbc="F F F"
O       -0.20740000       1.44310000      -0.04810000
C       -0.08480000       0.07080000      -0.03110000
C       -0.27420000      -0.76260000       1.21860000
C       -1.17930000      -1.02170000       0.04980000
O       -2.54350000      -1.01850000       0.18710000
C       -0.45770000      -1.79230000      -1.02640000
C       -0.56500000      -3.19690000      -1.41360000
O       -1.20000000      -2.15580000      -2.18620000
C        0.66750000      -0.74290000      -1.10310000
H        0.45400000       1.82200000       0.54150000
H        0.46430000      -1.48730000       1.55910000
H       -0.78450000      -0.22280000       2.01210000
H       -2.90850000      -1.05170000      -0.70720000
H        0.26750000      -3.69130000      -1.91150000
H       -1.24590000      -3.85510000      -0.87610000
H        0.66240000      -0.24600000      -2.07630000
H        1.68200000      -1.07620000      -0.85940000
