21
Properties=species:S:1:pos:R:3 pbc="F F F"
C        0.00700000       1.56960000      -0.00600000
C        0.00640000       0.04400000       0.03750000
O        0.73190000      -0.45190000       1.15900000
C       -1.42210000      -0.54170000       0.00320000
O       -2.14910000      -0.04770000      -1.12080000
C       -1.42310000      -2.07090000       0.05140000
C       -2.84690000      -2.65240000       0.15020000
C       -2.86950000      -4.10900000       0.11650000
C       -2.86050000      -5.31080000       0.08470000
H        1.03160000       1.94980000      -0.03020000
H       -0.53600000       1.93360000      -0.88060000
H       -0.49050000       1.97760000       0.88400000
H        0.54950000      -0.34470000      -0.83630000
H        0.41050000       0.00990000       1.94150000
H       -1.96860000      -0.15130000       0.87480000
H       -1.74920000      -0.42400000      -1.91370000
H       -0.93480000      -2.45900000      -0.85360000
H       -0.81490000      -2.40280000       0.89630000
H       -3.31880000      -2.30090000       1.07760000
H       -3.45440000      -2.24870000      -0.66800000
H       -2.86560000      -6.37200000       0.05900000
