18
Properties=species:S:1:pos:R:3 pbc="F F F"
C        0.21020000       1.55520000      -0.08910000
C        0.04520000       0.04830000       0.03930000
O        0.63430000      -0.57440000      -1.10430000
C        1.20590000      -1.83950000      -0.76440000
C        2.43610000      -2.06520000      -1.63050000
C        1.46810000      -1.75400000       0.72900000
O        2.17720000      -0.56470000       1.10090000
C        0.74910000      -0.58460000       1.22690000
H        1.27180000       1.81340000      -0.06940000
H       -0.21870000       1.90250000      -1.03270000
H       -0.29840000       2.07060000       0.73180000
H       -1.02610000      -0.21160000       0.10500000
H        0.47100000      -2.64680000      -0.93170000
H        3.19330000      -1.31200000      -1.39980000
H        2.85590000      -3.06050000      -1.45280000
H        2.17210000      -1.98620000      -2.68830000
H        1.67210000      -2.64410000       1.31810000
H        0.35010000      -0.49380000       2.23360000
