21
Properties=species:S:1:pos:R:3 pbc="F F F"
C        0.29860000      -1.28960000       0.52830000
C        0.12980000      -0.13300000       0.24570000
C       -0.06200000       1.28020000      -0.07520000
C       -0.92180000       1.97660000       1.01360000
C       -1.42310000       3.36470000       0.58380000
C       -0.41780000       4.50830000       0.80330000
O        0.94170000       4.16290000       0.61670000
C        1.25450000       3.46190000      -0.57470000
C        1.30780000       1.95230000      -0.33240000
H        0.44180000      -2.31370000       0.76860000
H       -0.63850000       1.33220000      -1.01150000
H       -1.78180000       1.33110000       1.21610000
H       -0.34960000       2.04140000       1.94580000
H       -1.72500000       3.32050000      -0.47000000
H       -2.33250000       3.62060000       1.14000000
H       -0.69070000       5.36170000       0.16050000
H       -0.47050000       4.85390000       1.84130000
H        0.55630000       3.71700000      -1.38630000
H        2.24780000       3.80560000      -0.88610000
H        1.95900000       1.77860000       0.53130000
H        1.78190000       1.46370000      -1.19180000
