21
Properties=species:S:1:pos:R:3 pbc="F F F"
C       -0.10470000       1.43440000       0.15960000
O        0.03200000       0.04410000      -0.01660000
C       -1.18180000      -0.63410000       0.06570000
C       -0.97960000      -2.13310000      -0.14310000
O        0.10880000      -2.61010000      -0.37440000
C       -2.23010000      -2.93590000      -0.03560000
C       -2.28600000      -4.28880000      -0.72540000
C       -2.25160000      -4.24910000       0.76500000
C       -1.05810000      -4.74030000       1.55210000
H        0.89350000       1.87020000       0.07870000
H       -0.75310000       1.88340000      -0.60990000
H       -0.52360000       1.68350000       1.14780000
H       -1.67370000      -0.48570000       1.04610000
H       -1.90590000      -0.27790000      -0.69230000
H       -3.14730000      -2.35560000      -0.00040000
H       -3.20570000      -4.55480000      -1.23400000
H       -1.37090000      -4.57430000      -1.23410000
H       -3.20790000      -4.41510000       1.25520000
H       -0.12350000      -4.50380000       1.04120000
H       -1.02790000      -4.28740000       2.54900000
H       -1.11770000      -5.82640000       1.68230000
