16
Properties=species:S:1:pos:R:3 pbc="F F F"
C       -0.07960000       1.48670000      -0.03640000
C        0.07710000      -0.00190000       0.06200000
O       -1.08260000      -0.76790000      -0.26460000
C       -1.36020000      -1.53310000       0.90040000
O       -0.11200000      -1.88150000       1.45850000
C        0.73870000      -0.79490000       1.16540000
C        1.33730000      -0.78790000      -0.24100000
O        1.28850000      -1.90030000      -1.06030000
H        0.85380000       1.98480000       0.24250000
H       -0.32830000       1.78370000      -1.06050000
H       -0.87210000       1.84590000       0.62880000
H       -1.95380000      -0.93420000       1.61170000
H       -1.89860000      -2.44040000       0.61440000
H        1.24450000      -0.35300000       2.01830000
H        2.25810000      -0.22340000      -0.36510000
H        0.35210000      -2.06240000      -1.23870000
