19
Properties=species:S:1:pos:R:3 pbc="F F F"
C        0.02290000       1.56470000      -0.03000000
C        0.00620000       0.03660000      -0.00140000
O       -1.33520000      -0.44430000       0.12440000
C        0.68830000      -0.63190000      -1.21930000
C        1.21260000      -1.97890000      -0.69260000
O        1.36550000      -2.97930000      -1.34660000
C        1.43340000      -1.83640000       0.77840000
C        2.21570000      -0.59470000       1.19580000
C        0.72560000      -0.56310000       1.20900000
H        1.04500000       1.95460000      -0.05010000
H       -0.49510000       1.94270000      -0.91960000
H       -0.48410000       1.96230000       0.85400000
H       -1.84490000      -0.09830000      -0.61620000
H       -0.00330000      -0.79100000      -2.04920000
H        1.52760000      -0.03930000      -1.60180000
H        1.49130000      -2.73070000       1.38480000
H        2.72120000      -0.66060000       2.15240000
H        2.76880000      -0.04360000       0.44240000
H        0.19620000      -0.51460000       2.15320000
