15
Properties=species:S:1:pos:R:3 pbc="F F F"
C        0.00930000       1.52240000       0.14020000
C       -0.00090000       0.03800000       0.03830000
C       -0.02470000      -0.73420000      -1.08720000
O       -0.02450000      -2.07050000      -0.66480000
C        0.00010000      -1.98470000       0.67530000
N       -0.05620000      -3.15880000       1.36970000
N        0.01900000      -0.77670000       1.16150000
C       -0.04240000      -0.46110000      -2.45810000
C       -0.05790000      -0.20670000      -3.63720000
H        0.89950000       1.86690000       0.67740000
H       -0.00160000       1.97950000      -0.85150000
H       -0.86230000       1.87700000       0.70100000
H        0.30620000      -3.96840000       0.88980000
H        0.22820000      -3.07660000       2.33350000
H       -0.07220000       0.01700000      -4.67490000
