16
Properties=species:S:1:pos:R:3 pbc="F F F"
O        0.01180000       0.01780000      -0.45330000
C       -0.02440000       1.17260000      -0.11930000
C       -1.32590000       1.91510000       0.15070000
C       -1.23040000       2.93860000       1.26290000
C       -0.51760000       2.62250000       2.56180000
C        0.11370000       3.54670000       1.54340000
N        1.22850000       3.11300000       0.74930000
C        1.30120000       1.97070000      -0.00060000
O        2.31620000       1.59560000      -0.54630000
H       -1.58120000       2.42880000      -0.78840000
H       -2.11010000       1.17350000       0.32940000
H       -2.08310000       3.60600000       1.33420000
H       -0.90830000       3.04720000       3.47970000
H       -0.07080000       1.63910000       2.67270000
H        0.16530000       4.60520000       1.77170000
H        2.12010000       3.56600000       0.89780000
