12
Properties=species:S:1:pos:R:3 pbc="F F F"
C        0.36800000       1.07990000      -0.10460000
C       -0.43470000      -0.11590000       0.30980000
N       -0.97730000      -0.42300000       1.39550000
O       -0.68670000      -1.01320000      -0.76420000
C        0.33040000      -1.76560000      -1.20140000
O        1.45310000      -1.78110000      -0.78240000
C       -0.12110000      -2.61000000      -2.31280000
N       -0.41730000      -3.29190000      -3.19630000
H        0.44770000       1.79100000       0.71900000
H        1.37120000       0.76770000      -0.40760000
H       -0.10620000       1.57070000      -0.96050000
H       -0.80880000       0.29360000       2.10110000
