16
Properties=species:S:1:pos:R:3 pbc="F F F"
C       -0.02380000       1.53630000      -0.01860000
C       -0.00490000      -0.01250000      -0.00730000
C        0.75230000      -0.53900000       1.23710000
C       -1.38590000      -0.51420000       0.01710000
N       -2.47950000      -0.87720000       0.09330000
C        0.68740000      -0.52970000      -1.29100000
O        0.13460000      -1.22770000      -2.10560000
C        2.07020000      -0.11560000      -1.45940000
C        3.21660000       0.21390000      -1.62180000
H        0.99880000       1.91950000      -0.05140000
H       -0.57210000       1.91690000      -0.88390000
H       -0.50900000       1.90620000       0.88790000
H        0.26840000      -0.17300000       2.14590000
H        0.75520000      -1.63140000       1.26320000
H        1.78510000      -0.18300000       1.22100000
H        4.22980000       0.49640000      -1.77980000
