19
Properties=species:S:1:pos:R:3 pbc="F F F"
C       -0.59660000       1.09070000      -0.17050000
N        0.14870000      -0.14560000      -0.01920000
C        0.70980000      -0.75320000      -1.12270000
O        0.47100000      -0.41100000      -2.26820000
N        1.58200000      -1.78550000      -0.80510000
C        2.01440000      -2.69840000      -1.86120000
C        1.37840000      -4.01300000      -1.78700000
C        0.86140000      -5.09670000      -1.69370000
C        0.22880000      -6.40470000      -1.60250000
H        0.03670000       1.98330000      -0.07760000
H       -1.04110000       1.09070000      -1.16570000
H       -1.39030000       1.14330000       0.58040000
H        0.59830000      -0.29870000       0.86950000
H        1.47160000      -2.20960000       0.10390000
H        1.76960000      -2.19990000      -2.80390000
H        3.10540000      -2.81210000      -1.82320000
H       -0.07860000      -6.76500000      -2.59040000
H        0.90660000      -7.15060000      -1.17280000
H       -0.66680000      -6.36800000      -0.97260000
