13
Properties=species:S:1:pos:R:3 pbc="F F F"
O        0.14410000       1.38170000       0.09630000
C       -0.02430000       0.00580000      -0.10390000
C       -1.47840000      -0.37800000       0.15640000
O       -2.34800000       0.42860000       0.33280000
C       -1.71380000      -1.90190000       0.18620000
C       -3.09940000      -2.29640000       0.00650000
C       -4.24320000      -2.62620000      -0.14820000
H        1.05370000       1.60740000      -0.11910000
H        0.20720000      -0.30800000      -1.13800000
H        0.61580000      -0.60750000       0.55520000
H       -1.07020000      -2.38150000      -0.56330000
H       -1.33970000      -2.25500000       1.15870000
H       -5.25730000      -2.90990000      -0.28390000
