21
Properties=species:S:1:pos:R:3 pbc="F F F"
O        0.08040000       1.31760000      -0.26630000
C       -0.03230000      -0.03840000       0.14950000
C       -1.45560000      -0.53250000       0.14090000
C       -2.48240000       0.14170000       1.05800000
C       -3.50000000      -0.98480000       1.38320000
C       -3.27100000      -2.01170000       0.26740000
C       -3.46570000      -1.36100000      -1.14370000
C       -1.95900000      -1.10420000      -1.18690000
C       -1.73520000      -2.00580000       0.01470000
H       -0.34380000       1.38520000      -1.12830000
H        0.59780000      -0.69990000      -0.46790000
H        0.37290000      -0.06120000       1.16760000
H       -1.99660000       0.52840000       1.95930000
H       -2.96060000       0.99710000       0.57060000
H       -3.27420000      -1.43460000       2.35690000
H       -4.53440000      -0.62730000       1.41750000
H       -3.76310000      -2.97260000       0.41860000
H       -3.76170000      -2.10170000      -1.89120000
H       -4.14390000      -0.50200000      -1.21010000
H       -1.35450000      -1.02470000      -2.08550000
H       -1.02090000      -2.80360000       0.17380000
