16
Properties=species:S:1:pos:R:3 pbc="F F F"
N       -0.00150000      -1.13150000       0.03100000
C       -0.00210000       0.02510000       0.03260000
C       -0.00930000       1.46770000       0.04130000
C       -0.89390000       2.19440000       1.06080000
O       -0.60770000       3.55920000       0.73150000
C        0.31250000       3.43720000      -0.32890000
C        1.33390000       2.29300000      -0.05570000
C        1.39240000       2.01080000      -1.57350000
C       -0.10200000       2.29340000      -1.30200000
H       -1.96030000       1.98170000       0.92700000
H       -0.61140000       1.98130000       2.09770000
H        0.63050000       4.41130000      -0.69490000
H        2.13820000       2.27450000       0.67910000
H        1.92250000       2.74560000      -2.18410000
H        1.64920000       0.99260000      -1.86970000
H       -0.94270000       2.27530000      -1.99490000
