20
Properties=species:S:1:pos:R:3 pbc="F F F"
C       -0.02820000       1.36730000      -0.33160000
O       -0.07640000       0.11470000       0.33570000
C       -1.29090000      -0.54780000       0.15700000
C       -1.53010000      -1.23150000      -1.22330000
O       -1.55450000      -0.87720000      -2.37440000
N       -1.68240000      -2.44610000      -0.61000000
C       -1.34130000      -1.99670000       0.76140000
C        0.00740000      -2.51710000       1.25200000
C       -2.45790000      -2.24050000       1.77350000
H        0.95920000       1.79090000      -0.13650000
H       -0.17440000       1.25110000      -1.41130000
H       -0.79630000       2.05280000       0.05850000
H       -2.14210000       0.07790000       0.46810000
H       -1.79880000      -3.37240000      -0.99670000
H        0.79310000      -2.32030000       0.52080000
H        0.28760000      -2.02800000       2.18940000
H       -0.04630000      -3.59610000       1.43400000
H       -2.57290000      -3.31060000       1.97860000
H       -2.23080000      -1.74340000       2.72190000
H       -3.41440000      -1.86120000       1.40220000
