17
Properties=species:S:1:pos:R:3 pbc="F F F"
C        0.20040000       1.50620000       0.03660000
C       -0.10670000       0.02030000       0.04850000
O       -0.44280000      -0.55270000       1.05330000
C       -0.00880000      -0.74080000      -1.30570000
C       -1.33380000      -0.49190000      -2.07610000
C        1.20320000      -0.29600000      -2.15520000
C        0.10930000      -2.18030000      -1.02980000
N        0.22230000      -3.31920000      -0.87510000
H        1.28190000       1.65990000      -0.04940000
H       -0.26570000       2.02020000      -0.80890000
H       -0.14390000       1.94230000       0.97460000
H       -1.44760000       0.57190000      -2.30150000
H       -1.32540000      -1.04350000      -3.01960000
H       -2.19260000      -0.82270000      -1.48780000
H        2.14270000      -0.44320000      -1.61610000
H        1.24680000      -0.88230000      -3.07650000
H        1.11490000       0.75840000      -2.42750000
