14
Properties=species:S:1:pos:R:3 pbc="F F F"
O        0.07900000       1.39200000       0.06850000
C        0.02710000       0.01340000       0.02820000
C       -0.50130000      -0.71480000       1.22010000
C       -1.35590000      -0.69710000      -0.02990000
C       -2.56380000       0.16720000      -0.07350000
O       -3.54460000      -0.09600000      -0.72330000
C        1.07830000      -0.60340000      -0.81530000
O        1.84840000       0.07870000      -1.45090000
H        0.72410000       1.63930000      -0.61400000
H       -0.05310000      -1.65780000       1.51300000
H       -0.81130000      -0.07560000       2.04040000
H       -1.43260000      -1.60640000      -0.61670000
H       -2.50110000       1.08530000       0.54650000
H        1.10180000      -1.71100000      -0.84240000
