11
Properties=species:S:1:pos:R:3 pbc="F F F"
N        0.15830000      -1.13410000      -0.00570000
C        0.05640000       0.01920000       0.00210000
C       -0.08330000       1.42230000       0.01170000
C       -1.19430000       2.23700000       0.03240000
C       -0.69970000       3.58160000       0.03210000
C        0.65400000       3.47780000       0.01240000
O        1.04150000       2.17960000      -0.00020000
C       -2.54870000       1.82340000       0.04990000
N       -3.66160000       1.50720000       0.06430000
H       -1.28960000       4.48300000       0.04520000
H        1.45200000       4.20150000       0.00480000
