20
Properties=species:S:1:pos:R:3 pbc="F F F"
C        0.37830000       1.53620000       0.17000000
C       -0.15140000       0.11700000      -0.06950000
C        0.43250000      -0.51170000      -1.31860000
C        1.75950000      -1.23060000      -1.28970000
C        0.48620000      -2.00470000      -1.56000000
C       -0.04100000      -3.02580000      -0.56700000
C        0.65410000      -4.36190000      -0.73180000
O        0.09450000      -5.41750000      -0.88030000
H        1.46700000       1.53430000       0.28650000
H        0.13710000       2.19460000      -0.67160000
H       -0.05830000       1.97520000       1.07240000
H        0.07370000      -0.50140000       0.80710000
H       -1.24600000       0.14390000      -0.15080000
H        0.24540000       0.07310000      -2.21700000
H        2.46550000      -1.08190000      -2.09910000
H        2.22600000      -1.36560000      -0.31770000
H        0.33380000      -2.30180000      -2.59470000
H        0.15230000      -2.68690000       0.45950000
H       -1.11920000      -3.18380000      -0.67060000
H        1.76710000      -4.29940000      -0.71350000
