17
Properties=species:S:1:pos:R:3 pbc="F F F"
C        0.00190000       1.50460000       0.01920000
C        0.01980000      -0.00690000       0.00340000
C        0.58150000      -0.70010000      -1.25930000
O        0.07950000      -2.06320000      -1.18380000
C       -0.67160000      -2.14090000       0.00990000
O        0.17290000      -2.08650000       1.14070000
C        0.68050000      -0.72470000       1.20280000
C       -1.32610000      -0.75580000       0.05000000
O       -2.45640000      -0.36870000       0.09930000
H        1.01450000       1.91960000      -0.01740000
H       -0.55610000       1.89270000      -0.83800000
H       -0.48500000       1.87510000       0.92620000
H        0.21660000      -0.23040000      -2.18010000
H        1.67760000      -0.72130000      -1.27870000
H       -1.27190000      -3.04600000       0.02490000
H        1.77460000      -0.74540000       1.13380000
H        0.39110000      -0.27380000       2.15910000
