22
Properties=species:S:1:pos:R:3 pbc="F F F"
C        0.02910000       1.59540000       0.08610000
C        0.02950000       0.06710000       0.00240000
C       -1.38240000      -0.52950000       0.03090000
C       -1.40330000      -2.06350000       0.00160000
N       -0.74740000      -2.58590000       1.19620000
C       -2.86790000      -2.59570000      -0.20140000
N       -3.54890000      -2.24120000      -1.44680000
C       -2.85900000      -4.06400000      -0.07530000
N       -2.79440000      -5.21420000       0.01950000
H        1.04800000       1.99370000       0.05810000
H       -0.52510000       2.04330000      -0.74680000
H       -0.43660000       1.94210000       1.01560000
H        0.53200000      -0.25070000      -0.92060000
H        0.60870000      -0.35920000       0.82680000
H       -1.90820000      -0.18920000       0.93640000
H       -1.95370000      -0.13880000      -0.82000000
H       -0.82170000      -2.40890000      -0.86510000
H       -1.27170000      -2.33130000       2.02950000
H       -0.70560000      -3.60030000       1.17190000
H       -3.47770000      -2.20860000       0.62680000
H       -3.70340000      -1.24020000      -1.48460000
H       -2.97510000      -2.49190000      -2.24700000
