17
Properties=species:S:1:pos:R:3 pbc="F F F"
O        0.53730000       0.79140000      -0.73390000
C        0.04190000      -0.26490000       0.04280000
C        0.02770000      -0.14040000       1.60720000
C       -1.38990000      -0.72600000       1.59600000
C       -1.98660000      -1.80190000       2.38610000
O       -2.42560000      -0.43840000       2.51380000
C       -1.47730000      -0.51150000       0.10350000
C       -2.54260000       0.14740000      -0.65570000
O       -2.26330000      -1.25450000      -0.80060000
H        0.08130000       1.59790000      -0.46930000
H        0.57390000      -1.16100000      -0.28750000
H        0.79770000      -0.68430000       2.15590000
H        0.02860000       0.90670000       1.92680000
H       -2.69820000      -2.47620000       1.91340000
H       -1.45040000      -2.20010000       3.24620000
H       -3.47790000       0.38780000      -0.15430000
H       -2.28340000       0.75970000      -1.51790000
