23
Properties=species:S:1:pos:R:3 pbc="F F F"
C        0.05380000       1.59450000      -0.11980000
C        1.58610000       1.52860000      -0.12720000
C        2.10890000       0.92380000       1.14970000
C        1.53870000       1.16560000       2.54790000
C        0.67850000       0.03220000       3.13270000
C       -0.73090000      -0.07430000       2.53210000
C       -0.81320000      -0.66090000       1.11550000
C        0.00800000       0.03070000       0.02530000
C        1.54340000       0.01130000       0.09150000
H       -0.39200000       2.18220000       0.68910000
H       -0.37420000       1.93790000      -1.06370000
H        2.22550000       2.10120000      -0.78880000
H        3.19630000       0.87960000       1.13870000
H        2.38240000       1.34400000       3.22440000
H        0.95260000       2.09410000       2.56320000
H        1.20560000      -0.92460000       3.01890000
H        0.57930000       0.20220000       4.21210000
H       -1.34980000      -0.69880000       3.18830000
H       -1.19550000       0.92120000       2.54770000
H       -0.49960000      -1.71450000       1.14910000
H       -1.86850000      -0.67270000       0.81060000
H       -0.29730000      -0.38790000      -0.93960000
H        2.15810000      -0.75720000      -0.36520000
