17
Properties=species:S:1:pos:R:3 pbc="F F F"
O        0.09070000       0.03980000      -0.25980000
C        0.01590000       1.21430000      -0.05090000
C       -1.11310000       2.20350000       0.28710000
N       -0.06160000       3.23160000       0.51650000
C        1.02150000       2.37090000      -0.00470000
C        2.37820000       2.17400000       0.71540000
C        3.03420000       1.95710000      -0.67460000
C        1.80440000       2.64480000      -1.32480000
H       -1.78530000       2.37990000      -0.56340000
H       -1.71760000       1.96510000       1.16880000
H       -0.19480000       4.08890000      -0.00760000
H        2.69520000       3.11030000       1.18360000
H        2.43840000       1.36680000       1.44900000
H        4.01120000       2.41100000      -0.84880000
H        3.08090000       0.89740000      -0.93460000
H        1.40120000       2.22890000      -2.25160000
H        1.96160000       3.72110000      -1.45350000
