18
Properties=species:S:1:pos:R:3 pbc="F F F"
C       -0.06460000       1.47340000      -0.00160000
N        1.19950000       0.71690000       0.08730000
C       -0.08110000      -0.00260000      -0.01190000
C       -0.48610000      -0.88710000       1.15690000
O       -0.30150000      -2.22940000       0.69210000
C       -0.54540000      -2.26260000      -0.69630000
C       -2.01930000      -2.16550000      -1.14990000
O       -1.84080000      -0.78970000      -1.56450000
C       -0.43250000      -0.81400000      -1.23710000
H       -0.33870000       2.00930000       0.90320000
H       -0.30920000       1.99250000      -0.92470000
H        1.67330000       0.72510000      -0.81410000
H        0.14820000      -0.73780000       2.03250000
H       -1.53630000      -0.71350000       1.43390000
H        0.05490000      -3.06100000      -1.13360000
H       -2.29380000      -2.81040000      -1.99340000
H       -2.76010000      -2.27220000      -0.34950000
H        0.19510000      -0.59910000      -2.10930000
