17
Properties=species:S:1:pos:R:3 pbc="F F F"
C        0.11330000       1.53620000       0.00730000
C       -0.05090000       0.01980000       0.00370000
C       -1.47100000      -0.47830000       0.01350000
N       -2.45160000       0.37270000       0.02320000
C       -3.75830000      -0.10010000       0.03210000
N       -4.83070000       0.58550000       0.04210000
N       -3.87930000      -1.50740000       0.02950000
C       -2.79730000      -2.30360000       0.01920000
N       -1.57810000      -1.86550000       0.01080000
H        1.17460000       1.80030000      -0.00040000
H       -0.36260000       1.98710000      -0.86720000
H       -0.34840000       1.98130000       0.89240000
H        0.43810000      -0.43210000      -0.86970000
H        0.45220000      -0.43800000       0.86590000
H       -4.58540000       1.57420000       0.04270000
H       -4.81870000      -1.87880000       0.03590000
H       -2.99030000      -3.37480000       0.01800000
