22
Properties=species:S:1:pos:R:3 pbc="F F F"
C        0.09430000       1.05820000       0.73760000
C       -0.08140000      -0.33110000       0.12220000
C        0.57530000      -0.48580000      -1.25190000
O        1.98000000      -0.21260000      -1.13850000
C        2.46260000       0.85450000      -1.92660000
C        0.43800000      -1.92190000      -1.79890000
C        0.84090000      -2.04140000      -3.27040000
O        1.19510000      -2.81140000      -0.98980000
H        1.15460000       1.29520000       0.86230000
H       -0.35590000       1.83670000       0.11040000
H       -0.37980000       1.11340000       1.72220000
H        0.34000000      -1.09700000       0.78180000
H       -1.14870000      -0.56300000       0.01560000
H        0.11980000       0.22000000      -1.96170000
H        2.30180000       0.68480000      -3.00080000
H        1.99220000       1.80890000      -1.65160000
H        3.53790000       0.92950000      -1.74210000
H       -0.60770000      -2.23440000      -1.68710000
H        0.76220000      -3.08310000      -3.59210000
H        0.19840000      -1.42950000      -3.91340000
H        1.87820000      -1.72110000      -3.41350000
H        2.06330000      -2.39620000      -0.90070000
