21
Properties=species:S:1:pos:R:3 pbc="F F F"
C       -0.04350000       1.48780000       0.00420000
C       -0.01540000      -0.01720000      -0.05810000
C        0.54920000      -0.81460000      -1.26260000
C       -0.32330000      -1.98130000      -0.73060000
C       -0.76940000      -3.14210000      -1.58110000
C        0.15320000      -2.24730000       0.72330000
C       -0.98040000      -1.47390000       1.36210000
C        0.37660000      -0.82000000       1.21220000
C       -1.30410000      -0.93540000      -0.06120000
H        0.96960000       1.90040000       0.08840000
H       -0.50240000       1.91680000      -0.89350000
H       -0.61460000       1.83540000       0.87290000
H        0.16450000      -0.42860000      -2.21420000
H        1.63280000      -0.96010000      -1.33410000
H        0.07880000      -3.78090000      -1.85690000
H       -1.49300000      -3.76750000      -1.04540000
H       -1.24200000      -2.80030000      -2.50850000
H        0.70260000      -3.09780000       1.10780000
H       -1.57810000      -1.68100000       2.23970000
H        1.09930000      -0.56200000       1.97640000
H       -2.26700000      -0.64250000      -0.47560000
