18
Properties=species:S:1:pos:R:3 pbc="F F F"
C        0.00050000       1.52870000      -0.15850000
C        1.54820000       1.56130000       0.05570000
N        1.89270000       1.93650000       1.47200000
C        1.48110000       0.59300000       1.84310000
N        0.76600000       0.22830000       2.82120000
C       -0.03300000      -0.92970000       2.40250000
C       -0.88320000      -0.50900000       1.15870000
N       -0.04080000       0.04670000       0.08660000
C        1.40070000       0.06880000       0.42090000
H       -0.54770000       2.13680000       0.57040000
H       -0.33030000       1.78050000      -1.17030000
H        2.18770000       1.96600000      -0.72590000
H        2.88320000       2.13500000       1.58720000
H        0.58850000      -1.79390000       2.12430000
H       -0.68810000      -1.24610000       3.21760000
H       -1.43530000      -1.38460000       0.79570000
H       -1.62070000       0.24140000       1.46880000
H        2.02680000      -0.75580000       0.07360000
