16
Properties=species:S:1:pos:R:3 pbc="F F F"
C        0.89820000       1.95110000      -0.00570000
C        0.33980000       0.51200000       0.04250000
C        0.74470000      -0.27580000      -1.11180000
C        1.08300000      -0.92480000      -2.07790000
C        1.46950000      -1.65350000      -3.16030000
C        1.81180000      -2.30290000      -4.11910000
C        0.68030000      -0.12980000       1.41780000
N        1.14530000      -1.40160000       1.38440000
O        0.49870000       0.49620000       2.44220000
H        1.99020000       1.93940000      -0.05610000
H        0.51690000       2.47890000      -0.88240000
H        0.59290000       2.47350000       0.90200000
H       -0.75770000       0.57760000       0.04390000
H        2.11360000      -2.86950000      -4.96480000
H        1.32390000      -1.87480000       0.51510000
H        1.37370000      -1.84950000       2.25630000
