14
Properties=species:S:1:pos:R:3 pbc="F F F"
O       -0.06520000      -0.04800000      -0.32470000
C       -0.05920000       1.15210000      -0.12690000
N       -1.11930000       2.03750000      -0.05610000
C       -0.67710000       3.33700000       0.18220000
C        0.66680000       3.29830000       0.26210000
N        1.05650000       1.96980000       0.07540000
C        2.38970000       1.42280000       0.05920000
C        3.11690000       1.64570000       1.31670000
N        3.69890000       1.84530000       2.29390000
H       -2.07110000       1.73490000      -0.16300000
H       -1.35660000       4.16550000       0.27690000
H        1.38080000       4.08100000       0.45110000
H        2.27150000       0.34780000      -0.11720000
H        2.98410000       1.83740000      -0.76450000
