22
Properties=species:S:1:pos:R:3 pbc="F F F"
O        0.03140000       1.08580000      -0.92280000
C       -0.00590000       0.17070000       0.16020000
C       -1.32950000      -0.55800000       0.20050000
N       -1.54960000      -1.48980000      -0.92680000
C       -1.49840000      -2.01590000       0.44970000
C       -0.38510000      -2.98560000       0.79140000
C       -0.75830000      -4.42160000       0.47780000
C       -0.62120000      -4.94880000      -0.92830000
C        0.31000000      -5.43500000       0.15560000
H       -0.17840000       0.56550000      -1.70770000
H        0.82530000      -0.54530000       0.10110000
H        0.12960000       0.76300000       1.07150000
H       -2.16950000       0.07770000       0.47740000
H       -2.50890000      -1.43480000      -1.25620000
H       -2.45710000      -2.28870000       0.89290000
H        0.51660000      -2.71790000       0.23210000
H       -0.14030000      -2.89070000       1.85830000
H       -1.60880000      -4.79530000       1.04400000
H       -1.37530000      -5.63290000      -1.30200000
H       -0.22470000      -4.27200000      -1.67690000
H        1.34010000      -5.09400000       0.13170000
H        0.18880000      -6.44790000       0.52360000
