23
Properties=species:S:1:pos:R:3 pbc="F F F"
C       -0.06970000       1.39810000      -0.14860000
O       -0.03390000       0.04600000       0.24130000
C       -1.26680000      -0.62400000       0.09750000
C       -1.72020000      -0.88590000      -1.36490000
C       -2.45970000      -2.19290000      -1.23040000
C       -2.20750000      -2.81220000      -0.07410000
C       -2.75750000      -4.12680000       0.38230000
C       -1.21400000      -2.02460000       0.76510000
C        0.18890000      -2.65790000       0.76090000
H        0.91090000       1.82660000       0.07380000
H       -0.26920000       1.51790000      -1.22380000
H       -0.83730000       1.96080000       0.40700000
H       -2.05650000      -0.03580000       0.59440000
H       -2.34210000      -0.07860000      -1.76770000
H       -0.84620000      -0.97410000      -2.02630000
H       -3.11030000      -2.58190000      -2.00750000
H       -3.43980000      -4.55550000      -0.35720000
H       -1.95820000      -4.85540000       0.56660000
H       -3.30350000      -4.02020000       1.32870000
H       -1.54670000      -1.95480000       1.80910000
H        0.56940000      -2.77290000      -0.25860000
H        0.89280000      -2.03280000       1.31450000
H        0.16500000      -3.64830000       1.22640000
