22
Properties=species:S:1:pos:R:3 pbc="F F F"
C       -1.68030000      -0.39280000       2.53230000
C       -0.84610000      -0.79680000       1.34040000
N       -0.48070000       0.25860000       0.37910000
C        0.58360000      -0.42750000       1.13660000
C        1.40770000       0.41210000       2.09260000
C        2.15630000      -0.47990000       3.09890000
O        2.80910000       0.25110000       4.11630000
C        2.36760000       1.29680000       1.28280000
O        3.17980000       2.15480000       2.09310000
H       -1.39920000       0.59520000       2.90190000
H       -2.73980000      -0.35390000       2.25730000
H       -1.57120000      -1.11470000       3.34890000
H       -1.12950000      -1.75920000       0.91410000
H       -0.52630000      -0.08900000      -0.57460000
H        1.17540000      -1.16140000       0.58670000
H        0.73810000       1.07070000       2.65890000
H        1.44460000      -1.14760000       3.59770000
H        2.86480000      -1.12450000       2.54650000
H        3.31550000       0.94120000       3.66520000
H        3.07830000       0.67000000       0.73100000
H        1.79780000       1.88130000       0.54930000
H        2.60160000       2.81730000       2.48680000
