21
Properties=species:S:1:pos:R:3 pbc="F F F"
C        0.36370000       1.48650000      -0.22420000
C        0.12170000       0.03040000       0.08010000
O        1.26840000      -0.80370000       0.29080000
C        0.35480000      -0.61750000       1.38260000
C        0.88400000       0.06790000       2.62080000
C        1.85190000      -0.82070000       3.39970000
C        3.26750000      -1.01700000       2.80600000
O        3.88610000      -0.42340000       3.96880000
C        2.60770000      -0.17210000       4.58140000
H        1.12640000       1.91970000       0.42530000
H        0.69930000       1.60130000      -1.26010000
H       -0.56310000       2.05890000      -0.10840000
H       -0.63370000      -0.43560000      -0.55710000
H       -0.24250000      -1.50850000       1.59540000
H        1.38720000       1.00310000       2.35590000
H        0.03210000       0.33190000       3.26270000
H        1.36560000      -1.76320000       3.66790000
H        3.58800000      -2.05470000       2.65610000
H        3.46760000      -0.44860000       1.89080000
H        2.42020000       0.90240000       4.71880000
H        2.50900000      -0.67260000       5.55300000
