22
Properties=species:S:1:pos:R:3 pbc="F F F"
C       -1.76860000       1.53050000      -1.46450000
C       -1.75720000       0.00070000      -1.40510000
C       -1.65570000      -0.53810000       0.02730000
C       -1.62120000      -2.05620000       0.11640000
C       -2.13870000      -2.73310000       1.35840000
C       -2.91110000      -2.83900000       0.06580000
N       -0.49160000      -2.68650000      -0.52540000
C        0.77190000      -2.65340000      -0.01660000
O        1.08780000      -2.16190000       1.04500000
H       -1.83560000       1.88980000      -2.49610000
H       -2.62070000       1.94280000      -0.91250000
H       -0.85730000       1.94910000      -1.02360000
H       -2.66560000      -0.39400000      -1.87920000
H       -0.91320000      -0.37930000      -1.99460000
H       -0.75350000      -0.14670000       0.51220000
H       -2.50860000      -0.17530000       0.61450000
H       -1.60600000      -3.60990000       1.70460000
H       -2.53060000      -2.10150000       2.14730000
H       -3.83350000      -2.27760000      -0.03600000
H       -2.90860000      -3.79510000      -0.44670000
H       -0.60800000      -3.04290000      -1.46150000
H        1.49640000      -3.15020000      -0.69490000
