21
Properties=species:S:1:pos:R:3 pbc="F F F"
C       -0.00160000       1.49000000       0.04700000
C       -0.02040000      -0.00560000      -0.01310000
C        0.01190000      -0.77020000      -1.11070000
C       -0.02970000      -2.24820000      -0.79620000
C        0.01640000      -2.28020000       0.73160000
O       -0.72150000      -3.26480000       1.39410000
C        1.22010000      -1.68820000       1.42060000
C       -0.04710000      -0.85130000       1.23200000
C       -0.86120000      -0.43710000       2.43390000
H        0.87050000       1.85490000       0.60480000
H        0.02570000       1.92920000      -0.95400000
H       -0.88630000       1.88110000       0.56430000
H        0.07340000      -0.39110000      -2.12530000
H       -0.95870000      -2.71840000      -1.14670000
H        0.79910000      -2.80150000      -1.25760000
H       -0.17720000      -4.05700000       1.45350000
H        1.40750000      -2.05220000       2.42680000
H        2.10520000      -1.43730000       0.84410000
H       -0.42260000       0.42910000       2.94190000
H       -1.88540000      -0.17460000       2.14600000
H       -0.92210000      -1.25970000       3.15100000
