21
Properties=species:S:1:pos:R:3 pbc="F F F"
C       -0.05030000       1.51450000      -0.09940000
C        1.29690000       0.84040000       0.03300000
C        0.02800000       0.01640000       0.01210000
C       -0.16140000      -0.64850000       1.37480000
C        1.00460000      -1.63220000       1.60010000
C        2.34280000      -0.83770000       1.52130000
C        2.00830000       0.66770000       1.37500000
C        1.07370000       1.03750000       2.52910000
O       -0.16590000       0.32490000       2.42140000
H       -0.46990000       2.07110000       0.72890000
H       -0.28650000       1.92110000      -1.07680000
H        1.94130000       0.84080000      -0.84110000
H       -0.21710000      -0.59300000      -0.85260000
H       -1.12800000      -1.15390000       1.45130000
H        0.88270000      -2.10470000       2.57930000
H        0.96670000      -2.42880000       0.84980000
H        2.94560000      -1.00270000       2.42040000
H        2.94630000      -1.16530000       0.66910000
H        2.91520000       1.27760000       1.43550000
H        1.54790000       0.79280000       3.49120000
H        0.85010000       2.11160000       2.53490000
