22
Properties=species:S:1:pos:R:3 pbc="F F F"
C        0.49400000       0.45520000       1.49210000
C        0.25670000      -0.05800000       0.07260000
N       -1.05430000      -0.69890000      -0.00610000
C       -1.46380000      -1.55080000      -1.11130000
C       -0.42920000      -2.15430000      -2.05360000
C        0.47550000      -3.09310000      -1.21510000
O        1.81750000      -2.61690000      -1.29920000
C       -0.10070000      -3.09590000       0.23310000
C       -1.26670000      -2.11440000       0.26420000
H        1.44450000       0.99470000       1.55460000
H       -0.31220000       1.12720000       1.79980000
H        0.52950000      -0.37310000       2.20820000
H        0.23520000       0.78900000      -0.62420000
H        1.08990000      -0.70170000      -0.23730000
H       -2.44780000      -1.33080000      -1.52010000
H       -0.94420000      -2.71190000      -2.84200000
H        0.19280000      -1.40220000      -2.54920000
H        0.44010000      -4.11160000      -1.62600000
H        2.37250000      -3.19940000      -0.77090000
H       -0.46790000      -4.09160000       0.50460000
H        0.68680000      -2.84130000       0.95280000
H       -2.09460000      -2.33720000       0.93380000
