19
Properties=species:S:1:pos:R:3 pbc="F F F"
O       -0.09570000       1.42450000       0.00560000
C        0.00010000       0.04650000       0.00170000
C        0.74480000      -0.86720000      -1.05470000
C        1.73970000      -1.29180000       0.04930000
C        0.67780000      -0.87800000       1.09330000
C       -0.60230000      -1.80600000       1.04280000
C       -0.48350000      -2.91520000      -0.02820000
C       -0.53560000      -1.79540000      -1.09330000
C       -1.24240000      -0.86370000      -0.04160000
H        0.79220000       1.79880000       0.03450000
H        1.11120000      -0.51450000      -2.01980000
H        2.11710000      -2.31850000       0.05590000
H        2.59550000      -0.60840000       0.07940000
H        0.98330000      -0.53500000       2.08280000
H       -1.06720000      -2.02660000       2.00380000
H        0.36980000      -3.60050000      -0.00500000
H       -1.40500000      -3.50510000      -0.05990000
H       -0.93970000      -2.00620000      -2.08360000
H       -2.28380000      -0.54930000      -0.07250000
