18
Properties=species:S:1:pos:R:3 pbc="F F F"
O        0.29770000       0.98780000      -0.80390000
C        0.03940000      -0.18490000      -0.09070000
C        0.15930000      -0.18740000       1.47180000
C       -1.27100000      -0.78380000       1.58890000
C       -2.38220000       0.28290000       1.75670000
N       -2.35220000       0.48370000       0.29770000
C       -3.30340000       1.06350000      -0.48180000
O       -4.20690000       1.75110000      -0.05750000
C       -1.44170000      -0.63960000       0.03250000
H       -0.36530000       1.63480000      -0.53020000
H        0.65590000      -0.96840000      -0.54070000
H        0.96080000      -0.82000000       1.85860000
H        0.26540000       0.80920000       1.91020000
H       -1.39230000      -1.72770000       2.11430000
H       -3.34990000      -0.10330000       2.09450000
H       -2.12700000       1.16870000       2.34640000
H       -3.14690000       0.84380000      -1.55780000
H       -1.83080000      -1.40110000      -0.64700000
