18
Properties=species:S:1:pos:R:3 pbc="F F F"
C       -0.00650000       1.49720000      -0.03100000
C        1.31680000       0.75090000      -0.01080000
C        0.00290000       0.00670000       0.03110000
C       -0.42590000      -0.74330000       1.27720000
C       -0.13360000      -2.21390000       1.11850000
C        0.16780000      -2.73770000      -0.06650000
C        0.19750000      -1.90560000      -1.31840000
O       -0.40480000      -0.63120000      -1.15230000
H       -0.30740000       2.04630000       0.85500000
H       -0.31200000       1.94240000      -0.97090000
H        1.87550000       0.71440000      -0.93940000
H        1.92490000       0.79280000       0.88640000
H        0.09470000      -0.34280000       2.15550000
H       -1.49940000      -0.58940000       1.46110000
H       -0.17630000      -2.83820000       2.00690000
H        0.40550000      -3.79240000      -0.17660000
H        1.23800000      -1.79710000      -1.67440000
H       -0.36230000      -2.39820000      -2.12220000
