16
Properties=species:S:1:pos:R:3 pbc="F F F"
N       -0.02770000       1.25640000       0.29180000
C        0.05750000      -0.07930000       0.11680000
O        1.07920000      -0.73870000       0.08670000
C       -1.33400000      -0.73510000      -0.05930000
O       -2.33600000      -0.05770000      -0.03380000
C       -1.32080000      -2.23160000      -0.28490000
C       -2.68340000      -2.86100000      -0.14940000
C       -2.83640000      -4.27650000       0.20390000
O       -3.06740000      -3.25130000       1.17080000
H        0.80620000       1.80150000       0.42900000
H       -0.93820000       1.68700000       0.30690000
H       -0.91180000      -2.39740000      -1.29260000
H       -0.59780000      -2.68770000       0.39760000
H       -3.47810000      -2.37860000      -0.71650000
H       -3.72010000      -4.82270000      -0.12260000
H       -1.95030000      -4.88760000       0.37270000
