21
Properties=species:S:1:pos:R:3 pbc="F F F"
C        0.45930000       1.40130000       0.23690000
C       -0.29570000       0.12970000      -0.17380000
C        0.34800000      -0.52830000      -1.37060000
O        1.56680000      -1.24640000      -1.16440000
C        0.41800000      -1.98930000      -1.63110000
C       -0.12230000      -3.04210000      -0.67620000
C        0.80660000      -4.25710000      -0.56760000
C        0.49520000      -2.41180000      -3.01520000
C        0.53250000      -2.77760000      -4.16000000
H        1.49450000       1.16520000       0.50050000
H        0.47880000       2.13210000      -0.57870000
H       -0.01390000       1.87580000       1.10120000
H       -0.33000000      -0.56460000       0.66970000
H       -1.33370000       0.37640000      -0.43160000
H        0.37120000       0.10390000      -2.26180000
H       -0.25790000      -2.59380000       0.31070000
H       -1.11220000      -3.35240000      -1.03090000
H        0.39840000      -4.99440000       0.12960000
H        0.93600000      -4.74180000      -1.53960000
H        1.79340000      -3.95300000      -0.20640000
H        0.57490000      -3.09410000      -5.17300000
