17
Properties=species:S:1:pos:R:3 pbc="F F F"
N       -0.03510000      -1.15560000      -0.32610000
C       -0.02620000      -0.01110000      -0.15270000
C       -0.00170000       1.41490000       0.06260000
C       -0.51400000       2.32330000      -1.09940000
C        0.80370000       3.15130000      -1.04730000
C        1.33580000       2.27110000       0.11150000
C        0.96040000       2.75920000       1.53340000
C       -0.35650000       1.92920000       1.49350000
H       -0.65240000       1.78050000      -2.03560000
H       -1.43840000       2.85890000      -0.86990000
H        1.39420000       3.06990000      -1.96220000
H        0.69430000       4.21180000      -0.80520000
H        2.31720000       1.81620000      -0.01720000
H        1.65340000       2.42140000       2.30660000
H        0.84210000       3.84170000       1.63070000
H       -1.29190000       2.49190000       1.54400000
H       -0.39280000       1.13120000       2.23660000
