18
Properties=species:S:1:pos:R:3 pbc="F F F"
C       -0.24960000       1.48500000       0.00060000
N        0.02960000       0.05550000       0.08530000
C        1.35580000      -0.44950000      -0.30340000
C        2.40960000       0.45900000      -0.67970000
N        3.24700000       1.19160000      -0.99870000
C        0.87950000      -0.49700000       1.13440000
C        1.53370000       0.39160000       2.17580000
C        0.40860000      -1.83830000       1.66400000
H        0.60990000       2.14120000       0.18680000
H       -0.62900000       1.70210000      -1.00210000
H       -1.03720000       1.72430000       0.72080000
H        1.34030000      -1.36000000      -0.89810000
H        1.98140000       1.29130000       1.75270000
H        0.79750000       0.69020000       2.93010000
H        2.32620000      -0.16130000       2.68940000
H        1.24860000      -2.41980000       2.05820000
H       -0.31070000      -1.69190000       2.47740000
H       -0.08460000      -2.41380000       0.87750000
