14
Properties=species:S:1:pos:R:3 pbc="F F F"
O       -0.00080000      -0.06060000       0.20220000
C       -0.00500000       1.12430000       0.12790000
C       -1.06670000       2.25740000       0.01630000
C       -0.68350000       3.03920000       1.28030000
O        0.77360000       3.03360000       1.17650000
C        1.01060000       2.28880000      -0.01380000
C       -0.04940000       2.90810000      -1.00380000
C       -0.07000000       2.36000000      -2.34490000
N       -0.07640000       1.92630000      -3.41660000
H       -2.11480000       2.08910000      -0.21300000
H       -1.04090000       4.07380000       1.28960000
H       -0.99690000       2.53730000       2.20130000
H        2.07070000       2.20230000      -0.23160000
H       -0.03800000       4.00000000      -1.01720000
