19
Properties=species:S:1:pos:R:3 pbc="F F F"
C       -0.03550000       1.57080000       0.16510000
C        0.03890000       0.06990000      -0.02190000
C        0.61910000      -0.59020000      -1.24200000
C        1.19580000       0.18170000      -2.40960000
O        1.95570000      -0.65020000      -3.27430000
C        1.37170000      -0.67330000       0.09540000
N        2.56540000       0.12260000       0.24910000
C        1.35460000      -1.94740000       0.78280000
N        1.38120000      -2.96030000       1.34350000
H        0.87190000       2.07350000      -0.17130000
H       -0.88400000       1.98050000      -0.39280000
H       -0.18700000       1.81820000       1.22110000
H       -0.79440000      -0.46740000       0.42160000
H        0.14240000      -1.51700000      -1.54800000
H        0.37460000       0.56670000      -3.02380000
H        1.78230000       1.03690000      -2.05640000
H        2.73700000      -0.94050000      -2.79350000
H        2.67090000       0.42340000       1.21360000
H        3.39110000      -0.42290000       0.02120000
