24
Properties=species:S:1:pos:R:3 pbc="F F F"
C        0.06310000       1.56150000      -0.01570000
C       -0.07660000       0.04060000       0.09130000
C        0.79250000      -0.56200000       1.19950000
C        0.64830000      -2.07460000       1.31020000
O        1.47640000      -2.52700000       2.36070000
C        1.58090000      -3.93920000       2.49450000
C        2.80790000      -4.19850000       3.36240000
C        0.31360000      -4.55690000       3.09520000
H        1.09770000       1.84940000      -0.23280000
H       -0.56940000       1.96600000      -0.81200000
H       -0.22510000       2.05150000       0.92090000
H       -1.12870000      -0.21750000       0.27170000
H        0.18680000      -0.41890000      -0.87070000
H        1.84850000      -0.32260000       1.02380000
H        0.53030000      -0.11560000       2.16680000
H       -0.40730000      -2.33560000       1.49060000
H        0.93960000      -2.55740000       0.36060000
H        1.74920000      -4.37810000       1.49540000
H        2.66820000      -3.75980000       4.35570000
H        2.98100000      -5.27240000       3.47990000
H        3.69560000      -3.74690000       2.91200000
H       -0.56210000      -4.38840000       2.46210000
H        0.43410000      -5.63880000       3.21140000
H        0.11350000      -4.12330000       4.08060000
