16
Properties=species:S:1:pos:R:3 pbc="F F F"
N        0.66170000      -0.07140000       0.72150000
C       -0.16820000       0.39240000      -0.24550000
O       -0.02860000       1.45210000      -0.82460000
C       -1.35730000      -0.51270000      -0.58010000
C       -1.44190000      -0.87460000      -2.09250000
N       -1.17360000      -2.31200000      -2.14430000
C       -1.12550000      -2.71290000      -0.93990000
N       -1.00440000      -4.00200000      -0.49880000
O       -1.26870000      -1.79840000       0.07580000
H        1.44340000       0.49550000       1.00450000
H        0.47450000      -0.94690000       1.17740000
H       -2.25800000      -0.01130000      -0.21630000
H       -2.43330000      -0.65420000      -2.50420000
H       -0.71300000      -0.30310000      -2.67320000
H       -0.68300000      -4.64610000      -1.20450000
H       -0.57970000      -4.11870000       0.40770000
