16
Properties=species:S:1:pos:R:3 pbc="F F F"
C       -0.22350000      -0.93570000       0.45220000
C       -0.14090000       0.20850000       0.07270000
C       -0.00580000       1.51970000      -0.41900000
C       -1.05600000       2.38210000      -0.58950000
C       -1.80330000       2.71230000       0.70150000
N       -0.83110000       3.89890000       0.81230000
C        0.59090000       3.69510000       0.20880000
C        1.24820000       2.34490000      -0.11070000
C       -0.58390000       3.83560000      -0.65350000
H       -0.30590000      -1.94070000       0.78480000
H       -2.79910000       3.15550000       0.61690000
H       -1.77130000       1.96600000       1.49910000
H        1.19980000       4.54700000       0.49630000
H        1.77420000       1.87220000       0.72440000
H        1.97810000       2.48590000      -0.91960000
H       -0.86860000       4.62180000      -1.34320000
