25
Properties=species:S:1:pos:R:3 pbc="F F F"
C       -0.22400000       1.12710000      -0.17050000
O        0.58440000       0.00080000       0.10630000
C        0.95170000      -0.69620000      -1.04330000
C        1.42240000      -2.10360000      -0.85080000
C        0.10490000      -1.84270000      -1.56850000
C       -1.16090000      -2.19530000      -0.80790000
C        0.09950000      -2.04710000      -3.08560000
C       -0.07840000      -3.52410000      -3.47020000
C       -0.93690000      -1.16080000      -3.79310000
H        0.29630000       1.84430000      -0.82380000
H       -1.17050000       0.84430000      -0.65240000
H       -0.43940000       1.61260000       0.78440000
H        1.46730000      -0.07870000      -1.78310000
H        2.27820000      -2.44680000      -1.42320000
H        1.37090000      -2.48970000       0.16180000
H       -1.07330000      -1.88670000       0.23630000
H       -2.04110000      -1.69690000      -1.22800000
H       -1.35050000      -3.27380000      -0.82600000
H        1.09100000      -1.73630000      -3.44510000
H        0.02700000      -3.66040000      -4.55160000
H        0.66660000      -4.15550000      -2.97560000
H       -1.07040000      -3.89350000      -3.18870000
H       -0.81210000      -0.10790000      -3.51980000
H       -0.83790000      -1.24050000      -4.88070000
H       -1.96040000      -1.45490000      -3.53740000
