22
Properties=species:S:1:pos:R:3 pbc="F F F"
C        0.05990000       1.60060000       0.06110000
C        0.01200000       0.07530000      -0.07210000
C       -1.41120000      -0.51270000      -0.03310000
C       -2.25100000      -0.10860000      -1.25190000
C       -1.33030000      -2.05060000       0.09140000
O       -0.63330000      -2.37610000       1.27210000
C       -0.28400000      -3.74430000       1.38870000
C       -2.67720000      -2.67140000       0.10650000
N       -3.71870000      -3.17160000       0.13810000
H        1.09610000       1.95090000       0.09260000
H       -0.43020000       2.10700000      -0.77590000
H       -0.42920000       1.93110000       0.98410000
H        0.49520000      -0.22820000      -1.01180000
H        0.59260000      -0.37530000       0.73710000
H       -1.90960000      -0.15730000       0.87810000
H       -3.26170000      -0.52250000      -1.20350000
H       -2.34230000       0.97810000      -1.31460000
H       -1.78640000      -0.45670000      -2.18230000
H       -0.80040000      -2.45280000      -0.79010000
H       -1.17280000      -4.38780000       1.42940000
H        0.35020000      -4.06800000       0.55020000
H        0.27500000      -3.84650000       2.32060000
