19
Properties=species:S:1:pos:R:3 pbc="F F F"
C        0.14360000       1.42740000       0.18130000
C       -0.10080000      -0.08370000      -0.02800000
C       -1.52460000      -0.41350000       0.04020000
C       -2.69840000      -0.66840000       0.08590000
C        0.49980000      -0.54910000      -1.33290000
C        0.02800000      -0.27830000      -2.77470000
C        0.70800000      -1.62950000      -3.19590000
C        1.13920000      -1.81270000      -1.73540000
O        1.92790000      -0.66230000      -1.38250000
H        1.21630000       1.63450000       0.14620000
H       -0.35290000       2.01140000      -0.59870000
H       -0.24930000       1.74890000       1.14880000
H        0.42450000      -0.62810000       0.76760000
H       -3.73330000      -0.90120000       0.13630000
H       -1.05820000      -0.30520000      -2.87960000
H        0.42300000       0.63460000      -3.22570000
H       -0.01630000      -2.37660000      -3.52820000
H        1.52830000      -1.56750000      -3.91450000
H        1.32680000      -2.72410000      -1.17860000
