18
Properties=species:S:1:pos:R:3 pbc="F F F"
C       -0.02680000       1.52050000       0.01420000
C       -0.04780000       0.02290000       0.05140000
C       -1.30590000      -0.85800000      -0.02870000
C       -0.49700000      -2.01410000       0.66840000
C        0.61230000      -0.97020000       0.95970000
N        1.16340000      -0.70540000      -0.37510000
C        1.00410000      -1.89000000      -1.22330000
C        0.07620000      -2.85710000      -0.45920000
O       -0.14580000      -4.00790000      -0.72430000
H        0.96980000       1.89410000       0.26190000
H       -0.28600000       1.88920000      -0.98530000
H       -0.74790000       1.94060000       0.72360000
H       -2.08760000      -0.48470000       0.63680000
H       -1.74430000      -1.05930000      -1.01270000
H       -0.98550000      -2.56850000       1.46490000
H        1.22650000      -0.86200000       1.84590000
H        0.58960000      -1.64610000      -2.20710000
H        1.98090000      -2.35740000      -1.38390000
