17
Properties=species:S:1:pos:R:3 pbc="F F F"
C       -0.02790000       1.49940000      -0.14550000
C        0.05700000       0.03100000       0.21700000
O        1.09680000      -0.51750000       0.51380000
C       -1.20150000      -0.69390000       0.18690000
C       -2.24740000      -1.29640000       0.16540000
C       -3.48300000      -2.06390000       0.14110000
C       -3.26240000      -3.53670000      -0.27840000
C       -4.53600000      -4.34540000      -0.15270000
O       -5.00580000      -5.02750000      -1.02400000
H        0.96480000       1.94820000      -0.08960000
H       -0.43570000       1.61370000      -1.15570000
H       -0.71310000       2.01590000       0.53540000
H       -3.93950000      -2.03130000       1.13990000
H       -4.20210000      -1.58920000      -0.53800000
H       -2.89080000      -3.60790000      -1.30280000
H       -2.51370000      -3.98290000       0.38940000
H       -5.02990000      -4.26790000       0.84550000
