15
Properties=species:S:1:pos:R:3 pbc="F F F"
O       -0.24870000       1.42900000      -0.05890000
C       -0.06920000       0.05390000       0.10370000
C       -0.47490000      -0.70130000       1.34660000
C       -1.71530000      -0.09560000       1.95570000
O       -2.82060000      -0.97580000       1.81970000
C       -2.45860000      -0.21590000       0.66410000
C       -3.41220000       0.77010000       0.09780000
O       -4.44070000       1.10750000       0.62530000
C       -1.25240000      -0.84840000      -0.00220000
H        0.44650000       1.88620000       0.42660000
H        0.83170000      -0.34170000      -0.36920000
H        0.17040000      -1.43060000       1.82170000
H       -1.80330000       0.69420000       2.69200000
H       -3.07290000       1.19580000      -0.87030000
H       -1.28190000      -1.70770000      -0.66030000
