21
Properties=species:S:1:pos:R:3 pbc="F F F"
C       -0.04350000       1.57210000      -0.11280000
C        0.01380000       0.08530000      -0.00150000
C        0.00810000      -1.03450000      -1.01560000
C        1.26090000      -1.67090000      -0.41610000
C        0.89440000      -0.90660000       0.88750000
C       -0.41730000      -1.56580000       1.33690000
C       -0.63970000      -2.86230000       2.04980000
C       -0.98820000      -1.53950000       2.71850000
C       -1.05800000      -0.97930000       0.10220000
H        0.91650000       1.99250000      -0.43550000
H       -0.79920000       1.87530000      -0.84620000
H       -0.30560000       2.03870000       0.84410000
H       -0.28380000      -0.97790000      -2.05740000
H        1.32470000      -2.76310000      -0.35120000
H        2.16800000      -1.27370000      -0.88100000
H        1.65570000      -0.62400000       1.61330000
H       -1.45730000      -3.49930000       1.72730000
H        0.22490000      -3.40420000       2.42140000
H       -0.35610000      -1.20340000       3.53490000
H       -2.03840000      -1.29340000       2.84300000
H       -2.11210000      -0.88380000      -0.12940000
