17
Properties=species:S:1:pos:R:3 pbc="F F F"
C        0.13290000       1.62270000      -0.06550000
C        0.12930000       0.12750000       0.08230000
O       -1.20070000      -0.37890000       0.44930000
C       -0.70830000      -1.05110000       1.54470000
O       -1.32580000      -1.65960000       2.35800000
C        0.74410000      -0.72300000       1.23550000
C        1.31090000      -1.73040000       0.18070000
C        0.81200000      -0.78810000      -0.96250000
O       -0.06300000      -1.28300000      -1.93620000
H        1.14710000       1.99020000      -0.24830000
H       -0.49720000       1.91750000      -0.91100000
H       -0.25650000       2.10400000       0.83610000
H        1.38920000      -0.35540000       2.02970000
H        2.39430000      -1.85560000       0.22070000
H        0.83460000      -2.71250000       0.19910000
H        1.66110000      -0.24990000      -1.41040000
H        0.43960000      -1.81970000      -2.55720000
