16
Properties=species:S:1:pos:R:3 pbc="F F F"
C        0.02520000       1.58580000       0.06100000
C        0.06260000       0.08110000      -0.11100000
C        0.91670000      -0.44750000      -1.26880000
C        1.42670000      -1.78790000      -0.75280000
O        1.99150000      -2.65850000      -1.34540000
C        1.08100000      -1.80200000       0.77230000
O        0.67660000      -0.48920000       1.07000000
C        0.02540000      -2.79500000       1.04460000
N       -0.82240000      -3.55510000       1.24140000
H        1.03910000       1.98630000       0.15470000
H       -0.45920000       2.05380000      -0.80080000
H       -0.53710000       1.85110000       0.95990000
H       -0.96050000      -0.31450000      -0.19580000
H        0.38690000      -0.57350000      -2.21500000
H        1.78150000       0.20370000      -1.44660000
H        1.97110000      -2.05250000       1.35750000
