17
Properties=species:S:1:pos:R:3 pbc="F F F"
C       -0.05200000       1.46200000      -0.03770000
C        1.34730000       0.84310000      -0.02890000
C        2.27160000       0.41950000      -1.12180000
C        2.16320000      -0.85020000      -1.52340000
C        0.91910000      -1.63080000      -1.08550000
O        0.93840000      -2.09300000       0.28090000
C        0.14900000      -1.15300000       1.05320000
C        0.10940000      -0.01580000       0.06640000
O       -0.15820000      -0.71580000      -1.14000000
H       -0.32530000       2.04370000       0.83590000
H       -0.48690000       1.80450000      -0.97030000
H        1.85380000       0.98970000       0.92390000
H        3.05130000       1.08320000      -1.48410000
H        2.83720000      -1.30300000      -2.24280000
H        0.71100000      -2.48380000      -1.73600000
H       -0.83510000      -1.58510000       1.27220000
H        0.67610000      -0.92390000       1.98280000
