20
Properties=species:S:1:pos:R:3 pbc="F F F"
C        0.54980000       0.34190000      -0.70480000
C       -0.27390000       0.41740000       0.56530000
O        0.01480000       1.14740000       1.48480000
C       -1.53440000      -0.45200000       0.63080000
N       -1.39070000      -1.72480000      -0.04840000
C       -0.69050000      -2.85080000       0.64360000
C       -1.89540000      -3.75640000       0.37940000
C       -3.12320000      -3.15530000       1.01660000
C       -2.57650000      -2.55600000      -0.25370000
H        1.30250000       1.13130000      -0.69810000
H        1.03970000      -0.63490000      -0.77420000
H       -0.08990000       0.42400000      -1.58900000
H       -1.83070000      -0.51900000       1.68990000
H       -2.32330000       0.11230000       0.11190000
H        0.22670000      -3.14160000       0.12110000
H       -0.45590000      -2.66870000       1.70130000
H       -1.85060000      -4.77720000       0.02590000
H       -4.03490000      -3.73160000       0.89350000
H       -3.05050000      -2.62860000       1.96450000
H       -3.15620000      -2.47220000      -1.16700000
