16
Properties=species:S:1:pos:R:3 pbc="F F F"
O       -0.08620000       1.46010000      -0.01060000
C        0.04850000       0.05080000       0.07810000
C       -1.36470000      -0.52160000       0.01020000
N       -2.04220000      -0.23240000      -1.23500000
C       -2.51880000      -1.30390000      -1.94380000
O       -3.08260000      -1.25510000      -3.01250000
C       -2.20410000      -2.55690000      -1.12210000
C       -1.37580000      -2.06060000       0.05150000
O       -0.79510000      -2.71810000       0.87360000
H        0.79200000       1.85020000      -0.04820000
H        0.64710000      -0.35090000      -0.75340000
H        0.51010000      -0.26810000       1.02240000
H       -1.92460000      -0.13660000       0.87580000
H       -2.11610000       0.70640000      -1.59520000
H       -3.13110000      -3.02250000      -0.76970000
H       -1.67310000      -3.30890000      -1.71130000
