18
Properties=species:S:1:pos:R:3 pbc="F F F"
O        0.02290000       1.38150000       0.35720000
C        0.02580000       0.03740000      -0.06590000
C       -1.36640000      -0.55740000      -0.04850000
C       -1.97100000      -1.17440000       1.19830000
C       -1.73420000      -2.02650000      -0.01370000
C       -2.91420000      -2.17860000      -0.95540000
O       -3.33010000      -0.83930000      -1.30040000
C       -2.37560000       0.06670000      -0.94660000
N       -2.34170000       1.27420000      -1.32990000
H       -0.63340000       1.82830000      -0.20220000
H        0.44800000      -0.06790000      -1.07910000
H        0.67540000      -0.51910000       0.61920000
H       -1.29300000      -1.29680000       2.03560000
H       -2.98990000      -0.91890000       1.47260000
H       -0.97870000      -2.80270000       0.00080000
H       -2.63260000      -2.70430000      -1.87510000
H       -3.77590000      -2.68450000      -0.50950000
H       -3.09920000       1.48690000      -1.97860000
