18
Properties=species:S:1:pos:R:3 pbc="F F F"
C        0.10580000       1.28960000       0.38250000
O       -0.02550000      -0.10800000       0.27490000
C       -1.28950000      -0.50350000      -0.20830000
C       -1.29790000      -2.00850000      -0.28810000
O       -1.77720000      -2.74170000       0.84300000
C       -2.51120000      -2.83310000      -0.38950000
C       -3.92650000      -2.30980000      -0.34200000
O       -4.76320000      -3.19430000       0.38340000
H        1.11220000       1.49460000       0.75460000
H       -0.02270000       1.78810000      -0.59180000
H       -0.62720000       1.71670000       1.08490000
H       -2.09130000      -0.14970000       0.45630000
H       -1.47000000      -0.07650000      -1.21140000
H       -0.38070000      -2.41200000      -0.71970000
H       -2.41950000      -3.80410000      -0.87960000
H       -3.94970000      -1.29660000       0.08250000
H       -4.33900000      -2.25920000      -1.35580000
H       -4.37000000      -3.29210000       1.25820000
