19
Properties=species:S:1:pos:R:3 pbc="F F F"
C        0.32430000       1.60190000      -0.03830000
C       -0.04380000       0.11040000      -0.02540000
O        0.45560000      -0.40640000       1.20660000
C       -1.57910000      -0.11350000      -0.13400000
C       -2.32120000       0.18290000       1.14660000
C       -3.48840000      -0.61580000       1.54340000
O       -2.21810000      -0.82490000       2.16460000
C        0.60230000      -0.56720000      -1.16580000
C        1.11230000      -1.12650000      -2.09990000
H        1.40110000       1.70940000       0.10830000
H        0.05150000       2.06270000      -0.99110000
H       -0.18550000       2.12300000       0.77650000
H       -0.10800000      -1.13850000       1.48380000
H       -1.97320000       0.49870000      -0.95290000
H       -1.76170000      -1.16000000      -0.40060000
H       -2.24890000       1.19860000       1.53420000
H       -4.25090000      -0.17980000       2.18630000
H       -3.83230000      -1.42010000       0.89440000
H        1.57790000      -1.62190000      -2.91590000
