16
Properties=species:S:1:pos:R:3 pbc="F F F"
C        0.03620000      -1.17170000      -0.01640000
C        0.00520000       0.03140000       0.00190000
C       -0.05830000       1.46200000       0.02740000
C       -1.03400000       2.29220000       0.90150000
N       -0.85700000       3.42450000      -0.07350000
C        0.61260000       3.70180000      -0.05630000
C        0.91280000       2.97820000      -1.33520000
C        1.24740000       2.31110000      -0.01250000
C       -0.50750000       2.40080000      -1.16770000
H        0.06810000      -2.23280000      -0.03250000
H       -2.06050000       1.91920000       0.85120000
H       -0.75440000       2.51100000       1.93570000
H        1.04320000       4.59340000       0.37980000
H        1.51780000       3.23780000      -2.19200000
H        2.20920000       2.08260000       0.42410000
H       -1.25100000       2.14910000      -1.92050000
