17
Properties=species:S:1:pos:R:3 pbc="F F F"
O        0.09140000       1.42920000      -0.11200000
C       -0.01950000       0.03910000       0.00000000
C       -0.46210000      -0.64580000       1.26910000
C       -1.22770000       0.18510000       2.30750000
C       -2.60830000       0.44520000       1.69330000
C       -2.75670000       1.36140000       0.53330000
N       -2.65450000      -0.09870000       0.32150000
C       -1.35190000      -0.68080000       0.03110000
H        0.85300000       1.70470000       0.41000000
H        0.74100000      -0.49870000      -0.56940000
H        0.09270000      -1.51130000       1.61620000
H       -1.32880000      -0.38800000       3.23290000
H       -0.70940000       1.11670000       2.56190000
H       -3.47580000       0.23800000       2.31630000
H       -3.74170000       1.76100000       0.30420000
H       -1.92260000       1.98780000       0.25350000
H       -1.42280000      -1.56780000      -0.58960000
