19
Properties=species:S:1:pos:R:3 pbc="F F F"
C       -0.12350000       1.56690000       0.04340000
C       -0.01470000       0.06250000       0.01790000
C        1.04150000      -0.72950000      -0.94520000
C        0.71520000      -1.84720000       0.08380000
C        1.02060000      -2.79660000       1.26780000
O        0.41460000      -1.78570000       2.16620000
C        0.72230000      -0.79310000       1.13480000
O       -0.68700000      -2.09140000      -0.19660000
C       -1.25770000      -0.77710000      -0.23300000
H        0.84070000       2.03170000       0.27100000
H       -0.46230000       1.95470000      -0.92380000
H       -0.84270000       1.89230000       0.80330000
H        0.73350000      -0.88120000      -1.98210000
H        2.04940000      -0.31920000      -0.88250000
H        0.47280000      -3.74000000       1.28760000
H        2.08140000      -2.93570000       1.50090000
H        1.70040000      -0.34950000       1.34910000
H       -2.01230000      -0.66440000       0.55560000
H       -1.72610000      -0.58370000      -1.20630000
