17
Properties=species:S:1:pos:R:3 pbc="F F F"
O       -0.28150000       1.45940000      -0.05620000
C       -0.09550000       0.09760000       0.05270000
C       -0.32680000      -0.85380000      -1.08380000
C       -1.16690000      -0.97880000       0.17330000
C       -0.33960000      -1.69800000       1.23770000
C        0.73530000      -0.57400000       1.15870000
O       -0.97610000      -1.71490000       2.51550000
C       -1.23400000      -2.90540000       3.08880000
O       -1.78040000      -3.00950000       4.14510000
H        0.35840000       1.80880000      -0.68610000
H       -0.86180000      -0.42510000      -1.92540000
H        0.40170000      -1.61810000      -1.34950000
H       -2.24670000      -0.90710000       0.16260000
H       -0.00780000      -2.71110000       0.97850000
H        1.76410000      -0.86500000       0.92250000
H        0.71440000       0.00760000       2.08200000
H       -0.88130000      -3.76070000       2.47940000
