16
Properties=species:S:1:pos:R:3 pbc="F F F"
O       -0.02370000       1.42640000       0.19410000
C       -0.05790000       0.03450000       0.06420000
C       -1.43100000      -0.65500000       0.03300000
C       -2.21240000      -0.23080000      -1.16250000
C       -1.10900000      -1.24810000      -1.36660000
C       -1.33790000      -2.56180000      -1.86640000
N       -1.49170000      -3.63130000      -2.28360000
C        0.25830000      -0.53600000      -1.36080000
O        0.44530000       0.51570000      -2.27730000
H        0.11800000       1.78770000      -0.69040000
H        0.59090000      -0.41280000       0.82360000
H       -1.88780000      -1.18070000       0.86170000
H       -3.21770000      -0.62920000      -1.23590000
H       -2.07970000       0.76050000      -1.58230000
H        1.09580000      -1.24070000      -1.37150000
H        0.59110000       0.16110000      -3.16000000
