18
Properties=species:S:1:pos:R:3 pbc="F F F"
C       -0.11020000       1.52480000       0.00280000
N        0.17580000       0.09260000       0.08720000
C        1.29160000      -0.66180000      -0.35030000
C        2.71570000      -0.20540000       0.09300000
C        2.76210000       1.05860000       0.90990000
C        2.27040000      -0.20490000       1.54850000
C        0.83700000      -0.65410000       1.12370000
C        0.11650000      -1.73740000       1.80500000
O        0.52070000      -2.30210000       2.79600000
H        0.54550000       2.02680000      -0.71460000
H       -1.14360000       1.65370000      -0.33710000
H       -0.01320000       2.01230000       0.97710000
H        1.14450000      -1.45640000      -1.07580000
H        3.60350000      -0.66250000      -0.32280000
H        3.76870000       1.33200000       1.21460000
H        2.13020000       1.91220000       0.71660000
H        2.75430000      -0.67980000       2.38970000
H       -0.84080000      -2.01000000       1.30980000
