15
Properties=species:S:1:pos:R:3 pbc="F F F"
O        0.02530000       0.00010000      -0.06790000
C       -0.01190000       1.18820000       0.02650000
C       -1.11350000       2.27120000       0.04380000
C       -0.81730000       3.01930000       1.34330000
C       -0.09300000       4.29160000       0.96390000
O       -0.13060000       4.45600000      -0.42660000
C       -0.09560000       3.11570000      -0.83130000
C        1.01540000       2.34170000      -0.00550000
C        0.73080000       3.07060000       1.30750000
H       -2.14460000       2.08140000      -0.24150000
H       -1.39570000       2.89360000       2.24690000
H       -0.11000000       5.20710000       1.53830000
H       -0.11710000       3.01230000      -1.91180000
H        2.04250000       2.22010000      -0.33840000
H        1.35740000       2.98490000       2.18310000
