16
Properties=species:S:1:pos:R:3 pbc="F F F"
C       -0.07620000       1.33610000       0.09990000
N       -0.01280000      -0.11330000       0.01280000
C        0.59330000      -0.63160000      -0.97720000
N        1.24440000      -0.07840000      -2.05780000
C        1.71540000      -1.08860000      -2.94330000
O        2.28070000      -0.84930000      -3.98480000
C        1.36390000      -2.36680000      -2.31750000
C        0.70870000      -2.11450000      -1.15660000
N        0.20040000      -2.90090000      -0.18820000
H        0.90850000       1.80980000      -0.02790000
H       -0.74950000       1.75410000      -0.66240000
H       -0.46520000       1.62550000       1.07870000
H        1.27640000       0.89760000      -2.29640000
H        1.62010000      -3.31800000      -2.75650000
H        0.08650000      -3.88920000      -0.32490000
H       -0.34960000      -2.43760000       0.51970000
