20
Properties=species:S:1:pos:R:3 pbc="F F F"
C        0.02480000       1.45450000       0.30860000
C       -0.07380000      -0.06940000       0.26210000
C       -1.52160000      -0.55440000       0.23830000
O       -2.47270000       0.15880000       0.50550000
N       -1.69030000      -1.85420000      -0.14840000
C       -0.78650000      -3.02270000      -0.18150000
C       -2.01610000      -3.92490000       0.00470000
C       -2.78680000      -3.51770000       1.23850000
C       -2.88260000      -2.67020000       0.00300000
H        1.06750000       1.77240000       0.39800000
H       -0.39550000       1.90120000      -0.59670000
H       -0.53970000       1.84800000       1.15640000
H        0.46130000      -0.47580000      -0.60450000
H        0.41190000      -0.50930000       1.14460000
H       -0.29480000      -3.14270000      -1.15300000
H       -0.03170000      -3.05260000       0.61300000
H       -2.17630000      -4.86180000      -0.50900000
H       -3.65960000      -4.12750000       1.45030000
H       -2.27180000      -3.13980000       2.11760000
H       -3.80090000      -2.43050000      -0.51600000
