22
Properties=species:S:1:pos:R:3 pbc="F F F"
C        0.01150000       1.51610000       0.26620000
C       -0.00700000       0.01950000      -0.07090000
C       -1.43850000      -0.51960000      -0.06450000
O       -1.98530000      -0.34320000       1.23530000
C        0.66720000      -0.29720000      -1.41910000
C        2.14530000       0.03110000      -1.47480000
C        3.15800000      -0.93460000      -0.91010000
C        3.05820000      -0.72920000      -2.40260000
H        1.03160000       1.88880000       0.39290000
H       -0.46310000       2.10080000      -0.53230000
H       -0.53740000       1.70200000       1.19190000
H        0.53660000      -0.51920000       0.71740000
H       -2.03610000       0.01550000      -0.82210000
H       -1.43230000      -1.58540000      -0.34540000
H       -2.90800000      -0.61180000       1.21290000
H        0.54070000      -1.36610000      -1.63980000
H        0.14230000       0.24340000      -2.22050000
H        2.38300000       1.08380000      -1.35170000
H        4.02390000      -0.53850000      -0.39110000
H        2.79030000      -1.87190000      -0.50420000
H        2.62580000      -1.52890000      -2.99570000
H        3.85500000      -0.18980000      -2.90310000
