19
Properties=species:S:1:pos:R:3 pbc="F F F"
O       -0.09380000       1.41430000       0.70000000
C       -0.02030000       0.07110000       0.22210000
C        0.38740000      -1.06700000       1.19730000
C       -0.86970000      -1.86560000       0.76210000
C       -2.06190000      -1.73210000       1.75460000
O       -1.77450000      -1.59030000       3.11580000
C       -2.49170000      -0.39580000       1.05160000
O       -2.40790000       0.71650000       1.91990000
C       -1.38590000      -0.59700000      -0.02970000
H        0.76740000       1.66390000       1.05130000
H        0.58830000       0.04320000      -0.69100000
H        1.35210000      -1.53170000       0.98460000
H        0.34910000      -0.79270000       2.25460000
H       -0.70350000      -2.83280000       0.28980000
H       -2.79390000      -2.53610000       1.61260000
H       -1.91790000      -0.64490000       3.29200000
H       -3.50200000      -0.43020000       0.63100000
H       -1.61280000       1.22020000       1.67870000
H       -1.73980000      -0.61100000      -1.06050000
