19
Properties=species:S:1:pos:R:3 pbc="F F F"
C        0.09840000       1.46770000       0.22590000
C        0.04680000       0.01710000       0.10450000
C        0.00760000      -1.18090000      -0.04100000
C       -0.02400000      -2.61160000      -0.12510000
C       -0.58910000      -3.36980000       1.06880000
O       -1.12860000      -2.64600000       2.13820000
C       -1.34810000      -3.38850000      -0.22530000
C       -2.68520000      -2.67040000      -0.27750000
O       -3.62050000      -3.23530000       0.62510000
H        0.84420000       1.78390000       0.96350000
H        0.35990000       1.93230000      -0.73110000
H       -0.87020000       1.87420000       0.53630000
H        0.83010000      -3.06480000      -0.61960000
H       -0.06420000      -4.26520000       1.39090000
H       -0.78290000      -1.74360000       2.09070000
H       -1.28880000      -4.31080000      -0.79530000
H       -2.54040000      -1.59850000      -0.08840000
H       -3.12090000      -2.76530000      -1.27700000
H       -3.23450000      -3.11460000       1.50190000
