20
Properties=species:S:1:pos:R:3 pbc="F F F"
C       -0.03280000       1.49330000       0.00390000
C        0.04700000      -0.01670000       0.04710000
C        0.77920000      -0.69750000      -1.13230000
O        1.04120000      -2.03850000      -0.66560000
C        0.47950000      -2.09670000       0.66170000
C        0.80800000      -0.70360000       1.20710000
C       -1.03290000      -2.05210000       0.45900000
C       -1.86930000      -1.12780000       1.26700000
N       -1.30540000      -0.66460000      -0.01000000
H        0.96760000       1.93780000      -0.00430000
H       -0.56760000       1.82490000      -0.89130000
H       -0.56990000       1.88080000       0.87550000
H        0.14720000      -0.72660000      -2.02600000
H        1.72900000      -0.20220000      -1.37040000
H        0.88670000      -2.97060000       1.16940000
H        1.88170000      -0.50910000       1.17760000
H        0.43690000      -0.48050000       2.20650000
H       -1.48340000      -2.86130000      -0.10790000
H       -2.94760000      -1.25270000       1.22960000
H       -1.50760000      -0.73630000       2.21170000
