16
Properties=species:S:1:pos:R:3 pbc="F F F"
O       -0.34040000      -0.03800000      -0.29560000
C       -0.19670000       1.14490000      -0.13910000
C        1.12540000       1.78510000      -0.34400000
N        2.14050000       2.31650000      -0.50210000
C       -1.31170000       2.12480000       0.23670000
C       -1.80920000       2.87210000      -1.02280000
C       -2.87370000       1.89260000      -1.54230000
C       -3.44210000       1.29930000      -0.24510000
O       -2.41890000       1.43880000       0.75500000
H       -0.91670000       2.81110000       0.99650000
H       -2.25630000       3.82160000      -0.71590000
H       -1.01830000       3.08860000      -1.74470000
H       -3.63730000       2.38160000      -2.15030000
H       -2.40800000       1.11020000      -2.14840000
H       -4.33100000       1.84340000       0.09820000
H       -3.69840000       0.24030000      -0.34060000
