16
Properties=species:S:1:pos:R:3 pbc="F F F"
C       -0.04760000       0.90360000      -2.52760000
O        0.62500000      -0.31940000      -2.20550000
C        0.75210000      -0.59790000      -0.89560000
N        0.34480000       0.19560000       0.00640000
N        1.37510000      -1.83280000      -0.71140000
C        1.90750000      -2.66920000      -1.69180000
N        2.94410000      -3.35810000      -1.42790000
C        1.12740000      -2.86010000      -2.98450000
O        1.62740000      -3.41810000      -3.92600000
H       -1.05900000       0.90610000      -2.11510000
H        0.50040000       1.75670000      -2.12170000
H       -0.07140000       0.94200000      -3.61680000
H        0.49150000      -0.17720000       0.94050000
H        1.82480000      -1.95040000       0.18610000
H        3.14280000      -3.96240000      -2.22900000
H        0.07880000      -2.51940000      -2.98590000
