16
Properties=species:S:1:pos:R:3 pbc="F F F"
C       -0.02040000       1.49070000       0.09160000
C       -0.04600000      -0.01460000      -0.11330000
C        0.85440000      -0.49850000      -1.23720000
O        0.82830000      -1.91000000      -1.29060000
C        1.38310000      -2.46780000      -0.11980000
C        0.96370000      -1.81550000       1.19610000
O        1.21980000      -2.32160000       2.25400000
O        0.34520000      -0.61700000       1.14720000
H        0.99880000       1.83900000       0.28430000
H       -0.40460000       2.00240000      -0.79610000
H       -0.64320000       1.76490000       0.94630000
H       -1.06850000      -0.35410000      -0.32160000
H        0.48540000      -0.13290000      -2.19930000
H        1.88240000      -0.12470000      -1.09280000
H        1.08960000      -3.51880000      -0.07880000
H        2.48520000      -2.43090000      -0.14460000
