14
Properties=species:S:1:pos:R:3 pbc="F F F"
O       -0.07890000       1.40110000       0.09130000
C       -0.02230000       0.03310000       0.04170000
C       -0.22240000      -0.80140000      -1.25590000
N        0.82440000      -1.78750000      -1.35500000
C        0.82070000      -2.24530000      -0.16280000
O        1.80610000      -1.83160000       0.75310000
C        0.66790000      -0.91210000       1.14610000
C       -0.39730000      -1.93830000       0.76780000
C       -1.18400000      -0.94360000      -0.05690000
H        0.65820000       1.75710000      -0.41960000
H       -0.55130000      -0.28070000      -2.14850000
H        0.82640000      -0.49040000       2.13690000
H       -0.77810000      -2.69900000       1.43980000
H       -2.24920000      -0.77530000      -0.10470000
