21
Properties=species:S:1:pos:R:3 pbc="F F F"
C       -0.15870000       1.50340000      -0.04310000
C        0.05460000      -0.00780000      -0.00770000
N        0.76340000      -0.45990000      -1.20100000
C        0.76290000      -1.91680000      -1.27680000
C        1.32870000      -2.53660000      -0.01740000
N        1.91830000      -3.65590000      -0.06410000
O        1.06750000      -1.90770000       1.16290000
C        0.87410000      -0.47180000       1.20470000
C        2.23260000       0.20670000       1.36070000
H        0.78500000       2.03080000      -0.20350000
H       -0.83840000       1.77100000      -0.85920000
H       -0.60650000       1.85970000       0.88960000
H       -0.93600000      -0.49630000       0.07980000
H        0.33590000      -0.07110000      -2.03450000
H       -0.25560000      -2.33330000      -1.40220000
H        1.36530000      -2.25930000      -2.11920000
H        2.17950000      -3.94900000       0.88000000
H        0.27800000      -0.31810000       2.11010000
H        2.79900000       0.14870000       0.42810000
H        2.11520000       1.25920000       1.63400000
H        2.79830000      -0.28950000       2.15310000
