13
Properties=species:S:1:pos:R:3 pbc="F F F"
N       -0.11210000       1.32040000       0.13310000
C        0.07050000      -0.03700000       0.02170000
N        1.17320000      -0.68680000      -0.05390000
C       -1.19080000      -0.79880000       0.03160000
C       -1.37580000      -2.16250000       0.03650000
N       -2.71740000      -2.30130000       0.03370000
N       -3.34730000      -1.10800000       0.02630000
N       -2.41750000      -0.20000000       0.02530000
H        0.65090000       1.92670000      -0.11760000
H       -1.04550000       1.67270000      -0.01690000
H        1.97570000      -0.05500000      -0.04700000
H       -0.68180000      -2.98410000       0.04080000
H       -3.26720000      -3.14600000       0.03600000
