19
Properties=species:S:1:pos:R:3 pbc="F F F"
C        0.03190000       1.53150000      -0.00500000
C       -0.01370000      -0.01530000      -0.01980000
C        0.72130000      -0.54090000       1.21690000
O        1.79950000      -1.06910000       1.19090000
C       -1.38170000      -0.52400000      -0.01880000
C       -2.50970000      -0.94530000       0.03030000
C       -3.86310000      -1.48390000       0.06630000
C       -3.89110000      -3.01500000      -0.00740000
O       -5.25320000      -3.40220000       0.03620000
H        1.06750000       1.88060000      -0.04580000
H       -0.51000000       1.92960000      -0.86590000
H       -0.43740000       1.92480000       0.90170000
H        0.53540000      -0.38580000      -0.89260000
H        0.16920000      -0.37330000       2.16910000
H       -4.37500000      -1.17170000       0.98470000
H       -4.45470000      -1.08610000      -0.76720000
H       -3.40130000      -3.34470000      -0.93560000
H       -3.32010000      -3.43180000       0.83560000
H       -5.29680000      -4.36160000      -0.00890000
