19
Properties=species:S:1:pos:R:3 pbc="F F F"
C       -0.20710000       1.60680000       0.07980000
C        0.00700000       0.10440000       0.02050000
O       -1.23450000      -0.57520000       0.09180000
C        0.81010000      -0.58000000      -1.11660000
C        2.06090000       0.20730000      -1.53850000
C        2.85850000       0.56290000      -0.29880000
C        2.39040000       0.19030000       0.89350000
C        1.10780000      -0.61260000       0.87930000
O        1.22190000      -1.61010000      -0.17790000
H        0.72420000       2.16970000       0.01180000
H       -0.87340000       1.91580000      -0.73170000
H       -0.69080000       1.88070000       1.02650000
H       -1.67790000      -0.29770000       0.90070000
H        0.23090000      -0.98010000      -1.95300000
H        2.66530000      -0.40040000      -2.22440000
H        1.77950000       1.11180000      -2.09520000
H        3.78980000       1.10950000      -0.41430000
H        2.88710000       0.42830000       1.82810000
H        0.81830000      -1.04890000       1.83870000
