21
Properties=species:S:1:pos:R:3 pbc="F F F"
C       -0.01500000       1.57720000      -0.00310000
C        0.02580000       0.05870000      -0.01260000
C        1.11970000      -0.65850000      -0.86150000
C        1.13650000      -1.76820000       0.23150000
C        0.62630000      -0.67370000       1.22310000
C       -0.00030000      -2.74150000       0.01120000
O        0.08130000      -3.92580000       0.23530000
C       -1.27810000      -2.09410000      -0.53350000
C       -1.35070000      -0.56040000      -0.32500000
H        0.96450000       1.99740000       0.24840000
H       -0.30830000       1.97230000      -0.98270000
H       -0.73780000       1.94970000       0.73260000
H        0.88110000      -0.94320000      -1.89070000
H        2.05900000      -0.09850000      -0.85650000
H        2.06170000      -2.29860000       0.45600000
H        1.46630000      -0.12230000       1.65490000
H       -0.05230000      -0.97940000       2.02550000
H       -1.28510000      -2.32790000      -1.60580000
H       -2.13860000      -2.61940000      -0.11230000
H       -2.03230000      -0.32520000       0.50110000
H       -1.77170000      -0.08420000      -1.21790000
