19
Properties=species:S:1:pos:R:3 pbc="F F F"
C       -0.64780000       1.50130000       0.07310000
C        0.36400000       0.42110000      -0.21790000
O        1.38590000       0.29350000       0.43070000
C        0.06960000      -0.53850000      -1.36940000
C        1.33940000      -0.80810000      -2.19330000
O        2.28890000      -1.54930000      -1.46390000
C       -0.70950000      -1.81790000      -0.95760000
C       -1.77910000      -1.30560000      -1.94160000
O       -1.02650000      -0.09670000      -2.20400000
H       -0.78510000       2.12830000      -0.81330000
H       -1.62800000       1.05970000       0.28350000
H       -0.31370000       2.09870000       0.92180000
H        1.05740000      -1.40060000      -3.07000000
H        1.74340000       0.14990000      -2.55950000
H        2.43170000      -1.05540000      -0.64260000
H       -0.19850000      -2.74530000      -1.21470000
H       -1.02280000      -1.85810000       0.08690000
H       -1.91210000      -1.90370000      -2.85010000
H       -2.76350000      -1.08400000      -1.51490000
