16
Properties=species:S:1:pos:R:3 pbc="F F F"
C       -0.03980000       1.42840000      -0.12130000
N       -0.00420000      -0.01170000      -0.08760000
C       -1.07250000      -1.00830000      -0.01250000
C        0.03880000      -2.11540000       0.01930000
N        0.02830000      -2.96850000       1.19400000
C        0.09330000      -2.92250000      -1.19540000
N        0.15540000      -3.54430000      -2.16750000
C        1.04340000      -0.88730000      -0.02410000
O        2.23390000      -0.74870000       0.03440000
H        0.99220000       1.78570000      -0.13740000
H       -0.55610000       1.79130000      -1.01730000
H       -0.54390000       1.83740000       0.76250000
H       -1.65900000      -0.97530000       0.91220000
H       -1.74080000      -1.02860000      -0.87810000
H        0.81030000      -3.61610000       1.15480000
H        0.16240000      -2.40070000       2.02660000
