18
Properties=species:S:1:pos:R:3 pbc="F F F"
C       -0.01150000       1.49930000       0.12020000
C       -0.00340000       0.01000000       0.00340000
C       -0.01290000      -0.77260000      -1.09820000
C       -0.06820000      -2.23860000      -0.70920000
N       -0.01040000      -2.27170000       0.77110000
C        1.23030000      -1.74060000       1.32630000
C        0.02840000      -0.85740000       1.21290000
C        0.01840000      -0.34650000      -2.49120000
O        0.06100000      -1.11930000      -3.42790000
H        0.89250000       1.85020000       0.63280000
H       -0.07610000       2.00200000      -0.84580000
H       -0.86120000       1.82530000       0.73270000
H       -1.00140000      -2.70450000      -1.04590000
H        0.75090000      -2.82290000      -1.14180000
H        1.50520000      -2.14970000       2.29470000
H        2.06250000      -1.53680000       0.65500000
H       -0.53680000      -0.57550000       2.09780000
H       -0.00850000       0.75090000      -2.66520000
