19
Properties=species:S:1:pos:R:3 pbc="F F F"
C       -0.12500000       1.54000000       0.03640000
C        0.16930000       0.07580000      -0.00010000
C        0.74940000      -0.75690000      -1.15930000
C        1.27510000      -1.78050000      -0.09140000
O        2.68530000      -1.84980000       0.04720000
C        0.69540000      -0.87040000       1.00390000
C        1.25610000      -0.75330000       2.39670000
O        1.71710000      -2.00640000       2.87360000
O       -0.70950000      -0.81370000       0.72720000
H        0.74550000       2.11870000      -0.28900000
H       -0.95940000       1.78380000      -0.63110000
H       -0.39760000       1.85320000       1.04770000
H        0.02820000      -1.11730000      -1.89740000
H        1.58970000      -0.26370000      -1.65580000
H        0.82120000      -2.77750000      -0.12570000
H        3.03940000      -2.39390000      -0.66310000
H        2.06270000      -0.00430000       2.40510000
H        0.47430000      -0.41200000       3.08090000
H        2.41280000      -2.28270000       2.26380000
