23
Properties=species:S:1:pos:R:3 pbc="F F F"
C       -0.32300000       1.55660000       0.04060000
C       -0.16530000       0.05200000       0.08980000
C        1.12510000      -0.62700000      -0.30020000
C        0.66070000      -0.67220000       1.13970000
C        1.44510000       0.11760000       2.17440000
C        0.09050000      -2.00360000       1.60880000
O        1.10250000      -2.96020000       1.95890000
C       -0.90610000      -1.90220000       2.76890000
O       -1.39080000      -3.18170000       3.11870000
H        0.60810000       2.07880000       0.27660000
H       -0.62820000       1.87550000      -0.96200000
H       -1.08740000       1.90350000       0.74500000
H       -1.06790000      -0.47930000      -0.20560000
H        1.08720000      -1.54120000      -0.88310000
H        1.97480000       0.00910000      -0.52940000
H        1.92240000       0.99390000       1.73060000
H        0.81550000       0.46750000       2.99920000
H        2.25480000      -0.48450000       2.60640000
H       -0.43280000      -2.47500000       0.76920000
H        1.66420000      -2.56340000       2.63420000
H       -0.42500000      -1.41050000       3.63270000
H       -1.76550000      -1.28750000       2.47950000
H       -0.62040000      -3.76320000       3.06870000
