17
Properties=species:S:1:pos:R:3 pbc="F F F"
C        0.00990000       1.48030000      -0.12110000
C        0.00710000      -0.00870000       0.07850000
C       -1.31830000      -0.78240000       0.29700000
C       -0.55650000      -1.82750000       1.16970000
C        0.67370000      -0.82930000       1.22710000
C        1.35250000      -1.61430000       0.06400000
O        0.82240000      -0.69440000      -0.91770000
C        0.33110000      -2.75020000       0.31810000
O        0.32680000      -3.92680000       0.10230000
H        1.03220000       1.86880000      -0.12260000
H       -0.45080000       1.73060000      -1.08340000
H       -0.55670000       1.98040000       0.67030000
H       -2.01270000      -0.20750000       0.91800000
H       -1.83690000      -1.13590000      -0.59760000
H       -1.06720000      -2.26840000       2.02480000
H        1.15690000      -0.45940000       2.12600000
H        2.41130000      -1.83730000      -0.07990000
