18
Properties=species:S:1:pos:R:3 pbc="F F F"
C       -0.05830000       1.59220000      -0.00630000
C       -0.02910000       0.07310000       0.03850000
O       -1.30820000      -0.49700000      -0.14190000
C        1.07280000      -0.60640000      -0.83760000
O        1.26700000      -0.72480000      -2.01910000
N        1.72020000      -1.06130000       0.28370000
C        0.71820000      -0.57970000       1.22320000
C        0.95440000      -0.07300000       2.60670000
C        0.12720000      -1.33170000       2.36430000
H        0.92900000       2.01510000       0.20110000
H       -0.37170000       1.93190000      -0.99910000
H       -0.77080000       1.97700000       0.72990000
H       -1.53770000      -0.40030000      -1.07370000
H        2.47840000      -1.71990000       0.39190000
H        1.94490000      -0.19430000       3.03340000
H        0.44140000       0.83030000       2.92110000
H       -0.94870000      -1.28120000       2.49080000
H        0.56940000      -2.28500000       2.63550000
