22
Properties=species:S:1:pos:R:3 pbc="F F F"
C       -0.01200000       1.60290000       0.16520000
C        0.05110000       0.07550000       0.06230000
C        0.70050000      -0.45250000      -1.23150000
C        2.18140000      -0.06070000      -1.35560000
C        0.55720000      -1.97490000      -1.32510000
C       -0.86550000      -2.58170000      -1.54130000
N       -0.35520000      -3.16690000      -2.78360000
C        0.90190000      -2.62290000      -2.69520000
O        1.85550000      -2.64710000      -3.42930000
H        0.98510000       2.05200000       0.19190000
H       -0.54830000       2.03460000      -0.68750000
H       -0.53520000       1.91070000       1.07590000
H        0.60120000      -0.32870000       0.92350000
H       -0.96810000      -0.32470000       0.13920000
H        0.15830000      -0.01570000      -2.08420000
H        2.74800000      -0.41040000      -0.48380000
H        2.62570000      -0.51170000      -2.24610000
H        2.30470000       1.02380000      -1.42000000
H        1.09850000      -2.45950000      -0.50510000
H       -1.19080000      -3.31600000      -0.79800000
H       -1.65650000      -1.83890000      -1.69230000
H       -0.80740000      -3.68250000      -3.52390000
