20
Properties=species:S:1:pos:R:3 pbc="F F F"
C       -0.09170000       1.62390000       0.15700000
C       -0.03600000       0.09820000       0.04290000
C        0.73290000      -0.52060000       1.21720000
C        0.09300000      -0.59370000       2.63170000
C        0.62770000      -2.04440000       2.69500000
N        0.81460000      -2.01580000       1.21630000
H       -0.67980000      -2.16650000       0.34050000
H        1.68070000      -2.41350000       0.86780000
C       -1.44700000      -0.49310000      -0.16260000
O       -1.54340000      -1.81990000      -0.01680000
O       -2.39480000       0.18250000      -0.47230000
H        0.91630000       2.05090000       0.16170000
H       -0.65360000       2.04480000      -0.67720000
H       -0.59880000       1.92920000       1.07760000
H        0.52130000      -0.16730000      -0.86930000
H        1.72710000      -0.05760000       1.26770000
H        0.46440000       0.10690000       3.37880000
H       -0.99760000      -0.54790000       2.60320000
H        1.57210000      -2.12110000       3.24630000
H       -0.05280000      -2.82620000       3.04180000
