19
Properties=species:S:1:pos:R:3 pbc="F F F"
C        0.42260000       1.32490000       0.34550000
C        0.02280000      -0.11240000       0.05580000
C        0.46490000      -0.75810000      -1.27120000
C        1.18920000      -1.78520000      -0.38060000
C        2.70260000      -1.86530000      -0.45650000
O        3.22720000      -2.52980000       0.67400000
O        0.79600000      -1.07420000       0.83460000
C       -1.44280000      -0.33950000       0.40810000
O       -2.32420000      -0.52800000      -0.38810000
H        1.49550000       1.45660000       0.18170000
H       -0.12270000       2.01250000      -0.30970000
H        0.20040000       1.58750000       1.38530000
H       -0.35620000      -1.13140000      -1.88240000
H        1.12800000      -0.13690000      -1.87710000
H        0.75900000      -2.79360000      -0.38180000
H        3.00510000      -2.43920000      -1.34000000
H        3.11620000      -0.84800000      -0.55750000
H        2.86340000      -2.07530000       1.44360000
H       -1.62760000      -0.33690000       1.50620000
