17
Properties=species:S:1:pos:R:3 pbc="F F F"
N       -0.09300000      -1.16820000      -0.09880000
C       -0.05560000      -0.01310000      -0.07970000
C       -0.00750000       1.44950000      -0.05490000
C       -0.68190000       2.06890000       1.20850000
C        0.20620000       3.26680000       1.56080000
C       -0.34490000       4.63730000       1.77190000
N        0.20950000       3.87080000       2.90010000
C        1.50060000       3.01080000       0.87510000
C        1.40730000       2.01650000      -0.00380000
H       -0.51160000       1.79950000      -0.96660000
H       -1.72730000       2.33190000       1.03400000
H       -0.64770000       1.33880000       2.02360000
H        0.23350000       5.51130000       1.48450000
H       -1.42250000       4.76250000       1.69690000
H       -0.54250000       3.47660000       3.46120000
H        2.38300000       3.60580000       1.07620000
H        2.19170000       1.64760000      -0.65190000
