17
Properties=species:S:1:pos:R:3 pbc="F F F"
O        0.42240000       0.90710000      -0.68990000
C        0.10070000      -0.25010000       0.03880000
C        0.04110000      -0.19690000       1.59360000
C       -1.23380000      -1.09090000       1.54550000
C       -1.35040000      -0.76240000       0.05150000
C       -2.49160000      -0.03780000      -0.60680000
C       -2.12190000      -1.44160000      -1.03370000
H       -0.17340000       1.60700000      -0.40020000
H        0.79780000      -1.01840000      -0.31220000
H        0.90780000      -0.56590000       2.14590000
H       -0.18820000       0.81720000       1.93730000
H       -1.01030000      -2.14660000       1.72780000
H       -2.06850000      -0.79720000       2.18690000
H       -3.40690000       0.10630000      -0.04140000
H       -2.25060000       0.77010000      -1.29140000
H       -1.64140000      -1.56600000      -1.99940000
H       -2.78940000      -2.25200000      -0.75760000
