20
Properties=species:S:1:pos:R:3 pbc="F F F"
C       -0.12350000       1.35710000       0.07430000
O        0.02580000      -0.05120000       0.06430000
C        0.63460000      -0.55580000      -1.06520000
C        0.01860000      -0.48530000      -2.47890000
N        0.69250000      -1.78910000      -2.79780000
C        2.02030000      -1.74590000      -2.07000000
C        0.78340000      -2.09610000      -1.34270000
C        2.18220000      -0.41820000      -1.33050000
C        2.81210000       0.78400000      -2.02500000
H        0.84580000       1.87180000       0.11690000
H       -0.67080000       1.71360000      -0.80990000
H       -0.69590000       1.60950000       0.96940000
H       -1.06110000      -0.65590000      -2.46660000
H        0.25960000       0.34930000      -3.14520000
H        2.78970000      -2.39690000      -2.46560000
H        0.40740000      -2.99270000      -0.86940000
H        2.68780000      -0.61750000      -0.37880000
H        2.31570000       1.02910000      -2.96790000
H        2.79100000       1.67490000      -1.38870000
H        3.86260000       0.57560000      -2.25790000
