11
Properties=species:S:1:pos:R:3 pbc="F F F"
N        0.01890000       1.31900000       0.00790000
C       -0.01330000      -0.02080000       0.00100000
N       -1.18070000      -0.62640000       0.00420000
C       -1.22070000      -1.97430000      -0.00270000
O       -2.15320000      -2.71240000      -0.00180000
O        0.09930000      -2.65000000      -0.01360000
C        1.18230000      -1.90690000      -0.01570000
N        1.23550000      -0.62100000      -0.00910000
H        0.90550000       1.79110000       0.00550000
H       -0.84520000       1.83300000       0.01540000
H        2.10030000      -2.49290000      -0.02380000
