12
Properties=species:S:1:pos:R:3 pbc="F F F"
C       -0.04380000       1.50790000       0.01400000
C        0.00400000      -0.00800000      -0.03280000
C        0.74510000      -0.69740000      -1.13300000
N        1.27270000      -0.71830000       0.23410000
C       -1.16690000      -0.66100000       0.52240000
N       -2.12380000      -1.14920000       0.94890000
H        0.84750000       1.92620000      -0.46360000
H       -0.92500000       1.88850000      -0.51080000
H       -0.08570000       1.86420000       1.04760000
H        0.39440000      -1.65590000      -1.50160000
H        1.21330000      -0.05820000      -1.87720000
H        2.01610000      -0.03190000       0.34260000
