13
Properties=species:S:1:pos:R:3 pbc="F F F"
C       -0.03320000       1.50430000      -0.00830000
C       -0.00960000       0.00800000      -0.05170000
N       -0.04480000      -0.62570000      -1.17970000
C       -0.02070000      -2.00460000      -1.15650000
C        0.03770000      -2.69160000      -0.00240000
O        0.07570000      -2.06630000       1.19230000
C        0.05540000      -0.68030000       1.25890000
O        0.08970000      -0.14810000       2.33440000
H        0.85830000       1.88690000       0.50040000
H       -0.08240000       1.90080000      -1.02270000
H       -0.89110000       1.85730000       0.57400000
H       -0.05080000      -2.51720000      -2.10950000
H        0.05960000      -3.77020000       0.09150000
