19
Properties=species:S:1:pos:R:3 pbc="F F F"
O       -0.17050000       1.29550000      -0.27760000
C       -0.07830000      -0.04930000      -0.00790000
C       -0.34110000      -1.06660000      -1.05110000
C       -1.36350000      -0.96640000       0.09130000
C       -1.17770000      -1.90420000       1.27060000
C        0.33090000      -1.81500000       1.62190000
C        0.79120000      -0.40970000       1.17950000
C       -2.61980000      -0.27760000      -0.18030000
O       -2.75450000       0.57280000      -1.04720000
H       -0.94630000       1.42430000      -0.85020000
H       -0.69400000      -0.69280000      -2.00670000
H        0.24790000      -1.97690000      -1.10110000
H       -1.79140000      -1.55610000       2.11040000
H       -1.47980000      -2.93550000       1.05650000
H        0.51970000      -1.99480000       2.68280000
H        0.88640000      -2.58170000       1.07280000
H        1.85890000      -0.37500000       0.93960000
H        0.60560000       0.33720000       1.95880000
H       -3.46490000      -0.52170000       0.49790000
