19
Properties=species:S:1:pos:R:3 pbc="F F F"
C        0.19230000       1.30600000       0.16950000
O       -0.30350000       0.05220000      -0.24890000
C        0.45110000      -0.52780000      -1.25500000
C        1.71860000      -1.38030000      -0.89050000
O        0.82010000      -2.37250000      -0.25500000
C        0.15690000      -2.01950000      -1.53490000
C        1.52620000      -2.11640000      -2.22030000
C        2.03120000      -1.94770000      -3.61310000
C        2.24720000      -3.25020000      -2.84580000
H        1.18880000       1.22030000       0.62670000
H        0.25510000       2.01820000      -0.66820000
H       -0.50480000       1.69620000       0.91410000
H        0.55520000       0.12980000      -2.13080000
H        2.63520000      -1.11150000      -0.36490000
H       -0.78900000      -2.50660000      -1.77170000
H        1.31690000      -1.95210000      -4.43030000
H        2.89220000      -1.30810000      -3.77980000
H        3.25170000      -3.47690000      -2.50360000
H        1.67610000      -4.12000000      -3.15340000
