20
Properties=species:S:1:pos:R:3 pbc="F F F"
C       -0.36720000       1.53410000      -0.07220000
C       -0.02650000       0.05320000       0.00460000
C        1.19080000      -0.42580000      -0.81630000
O        1.65480000      -0.14930000      -1.88600000
N        1.71590000      -1.21400000       0.24200000
C        2.88490000      -0.60060000       0.95500000
C        1.91530000       0.21830000       1.85470000
C        0.73330000      -0.57760000       1.21320000
C       -0.03930000      -1.50100000       2.12850000
H        0.49980000       2.16550000       0.14270000
H       -0.70970000       1.78410000      -1.08050000
H       -1.16330000       1.79410000       0.63240000
H       -0.91750000      -0.54550000      -0.21830000
H        3.46940000      -1.35590000       1.48530000
H        3.54430000      -0.04040000       0.28800000
H        2.02940000       0.07480000       2.93120000
H        1.91230000       1.29060000       1.64640000
H       -0.71390000      -0.92520000       2.77280000
H       -0.64010000      -2.21050000       1.55120000
H        0.63360000      -2.07410000       2.77470000
