15
Properties=species:S:1:pos:R:3 pbc="F F F"
C       -0.06700000       1.36840000      -0.26950000
O       -0.03800000      -0.03940000      -0.30050000
C       -1.19080000      -0.60580000       0.29230000
C       -1.13040000      -2.05870000       0.23330000
C       -1.10920000      -3.26070000       0.19230000
C       -1.05690000      -4.71540000       0.16210000
O       -1.87130000      -5.20690000      -0.89560000
H        0.85200000       1.72080000      -0.74280000
H       -0.93040000       1.77330000      -0.82170000
H       -0.10840000       1.75570000       0.76130000
H       -1.28210000      -0.27790000       1.34310000
H       -2.10170000      -0.25460000      -0.22380000
H       -0.00720000      -5.02800000       0.03770000
H       -1.39090000      -5.10670000       1.13720000
H       -1.79800000      -6.16680000      -0.89080000
