20
Properties=species:S:1:pos:R:3 pbc="F F F"
C       -0.04600000       1.56840000      -0.02950000
C       -0.01010000       0.04130000       0.02220000
O        0.58470000      -0.49730000      -1.16180000
C        0.82970000      -0.48070000       1.19130000
C        0.75360000      -1.99970000       1.31390000
C        1.42050000      -2.67940000       2.54940000
N        0.08920000      -3.17520000       2.91170000
C       -0.57670000      -2.56310000       1.87860000
O       -1.74210000      -2.49220000       1.58300000
H        0.96720000       1.97290000      -0.12310000
H       -0.62930000       1.91260000      -0.89070000
H       -0.50830000       1.98360000       0.87220000
H       -1.03230000      -0.34710000       0.13710000
H       -0.01960000      -0.34260000      -1.89380000
H        1.87130000      -0.17150000       1.03660000
H        0.48400000      -0.01010000       2.11970000
H        1.02580000      -2.46290000       0.36340000
H        2.14790000      -3.46540000       2.32430000
H        1.84870000      -1.98060000       3.27650000
H       -0.24660000      -3.69210000       3.71070000
