21
Properties=species:S:1:pos:R:3 pbc="F F F"
O       -0.26090000       1.36710000      -0.03180000
C       -0.08290000      -0.03960000       0.02590000
C        0.09070000      -0.61100000       1.45870000
C       -1.45790000      -0.51400000       1.60720000
C       -1.49560000      -0.68190000       0.05030000
O       -2.49610000      -0.06630000      -0.70540000
C       -1.38580000      -2.15880000      -0.33950000
C       -0.55060000      -2.94430000       0.69790000
C        0.55200000      -2.07530000       1.35010000
H        0.55990000       1.79530000       0.22890000
H        0.62350000      -0.37870000      -0.74610000
H        0.70990000      -0.02640000       2.14500000
H       -1.97750000      -1.24550000       2.22980000
H       -1.76580000       0.49370000       1.88880000
H       -2.32380000       0.88270000      -0.65940000
H       -2.39430000      -2.57880000      -0.41430000
H       -0.94350000      -2.22020000      -1.34090000
H       -1.22150000      -3.30050000       1.48590000
H       -0.11820000      -3.84160000       0.24510000
H        1.47700000      -2.11450000       0.76000000
H        0.79860000      -2.47570000       2.33950000
