23
Properties=species:S:1:pos:R:3 pbc="F F F"
C        0.23880000       1.48370000      -0.03800000
C        0.00600000      -0.02370000      -0.17800000
C       -1.45920000      -0.47090000       0.03200000
C       -2.37800000       0.01690000      -1.06120000
C       -3.41050000      -0.67040000      -1.54880000
C       -3.81420000      -2.04090000      -1.07830000
C       -2.71570000      -2.76390000      -0.31850000
C       -1.35060000      -2.91800000      -0.94270000
C       -1.54650000      -1.98000000       0.22610000
H        1.29930000       1.72760000      -0.15580000
H       -0.31170000       2.06030000      -0.78810000
H       -0.07620000       1.84160000       0.94890000
H        0.34570000      -0.36690000      -1.16290000
H        0.62900000      -0.54790000       0.55760000
H       -1.79650000      -0.00540000       0.97370000
H       -2.17910000       1.01080000      -1.45410000
H       -4.02710000      -0.22430000      -2.32590000
H       -4.70140000      -1.94890000      -0.43350000
H       -4.14290000      -2.64540000      -1.93550000
H       -3.06160000      -3.59820000       0.28500000
H       -0.80670000      -3.84170000      -0.77820000
H       -1.19820000      -2.47650000      -1.92240000
H       -1.13830000      -2.31960000       1.17460000
