23
Properties=species:S:1:pos:R:3 pbc="F F F"
C       -0.00550000       1.51270000       0.11900000
C       -0.06920000       0.02450000       0.00130000
C       -0.07850000      -0.75650000      -1.09230000
C       -0.02830000      -0.38530000      -2.53880000
C        0.00350000      -2.20410000      -0.61160000
C        1.45490000      -2.40620000      -0.06090000
C        1.46620000      -1.49930000       1.20880000
C        0.01960000      -0.90070000       1.21350000
C       -0.79260000      -2.11170000       0.70750000
H        0.91520000       1.83200000       0.62640000
H       -0.03550000       2.00870000      -0.85500000
H       -0.83830000       1.90170000       0.71930000
H       -0.04810000       0.69730000      -2.69140000
H        0.88230000      -0.77180000      -3.01670000
H       -0.87290000      -0.81740000      -3.09140000
H       -0.30990000      -2.95980000      -1.33480000
H        1.62920000      -3.45560000       0.19740000
H        2.21210000      -2.11930000      -0.79520000
H        1.64640000      -2.08550000       2.11560000
H        2.22950000      -0.71790000       1.16650000
H       -0.27890000      -0.45950000       2.16660000
H       -1.84950000      -1.88080000       0.55190000
H       -0.69720000      -3.00070000       1.34150000
