21
Properties=species:S:1:pos:R:3 pbc="F F F"
C       -0.08500000       1.56140000       0.01740000
C       -0.00470000       0.02810000       0.01010000
C       -1.42750000      -0.56520000       0.02400000
C        0.82590000      -0.49960000      -1.22590000
C        1.49250000      -1.76890000      -0.68230000
O        2.95490000      -1.95510000      -0.69370000
C        2.97200000      -2.09670000       0.76120000
C        1.58340000      -1.51100000       0.78620000
C        0.84750000      -0.48340000       1.18730000
H        0.91200000       2.01090000       0.06590000
H       -0.57610000       1.92750000      -0.89120000
H       -0.66290000       1.92480000       0.87480000
H       -2.01550000      -0.19870000      -0.82520000
H       -1.40370000      -1.65820000      -0.02380000
H       -1.95670000      -0.28540000       0.94140000
H        0.20750000      -0.65590000      -2.11510000
H        1.60740000       0.22660000      -1.47150000
H        1.01440000      -2.69870000      -1.01690000
H        3.06020000      -3.15190000       1.05250000
H        3.77080000      -1.51670000       1.23530000
H        0.88430000       0.03000000       2.14200000
