20
Properties=species:S:1:pos:R:3 pbc="F F F"
C       -0.09140000       1.49560000      -0.06430000
N        1.22350000       0.83590000      -0.02880000
C        0.00180000       0.01700000       0.05870000
C       -0.23150000      -0.71130000       1.33970000
C        0.12450000      -0.10880000       2.68840000
C       -0.03770000      -1.28400000       3.68290000
C        0.22590000      -2.56820000       2.85870000
C       -0.17570000      -2.17780000       1.45160000
O       -1.44080000      -1.49900000       1.37570000
H       -0.31790000       2.10260000       0.80720000
H       -0.45230000       1.90250000      -1.00500000
H        1.61680000       0.77810000      -0.96380000
H       -0.29200000      -0.55770000      -0.81750000
H        1.15740000       0.25160000       2.63910000
H       -0.51190000       0.74210000       2.95070000
H        0.62820000      -1.19620000       4.54460000
H       -1.06250000      -1.30130000       4.05950000
H        1.28980000      -2.83630000       2.85700000
H       -0.32980000      -3.43230000       3.23640000
H        0.05550000      -2.82100000       0.60480000
