20
Properties=species:S:1:pos:R:3 pbc="F F F"
C       -0.65720000       1.41250000      -0.00830000
C        0.02310000       0.04580000       0.02620000
C        0.80550000      -0.30910000      -1.25530000
C        1.70950000      -1.47620000      -0.83670000
O        3.05220000      -1.37270000      -1.37750000
C        3.85800000      -1.17650000      -0.30520000
N        3.37430000      -1.15260000       0.86640000
C        1.92190000      -1.33940000       0.70570000
C        1.08280000      -0.11500000       1.13470000
H        0.07930000       2.21050000      -0.15850000
H       -1.38810000       1.47480000      -0.82140000
H       -1.18430000       1.61740000       0.92920000
H       -0.74850000      -0.72370000       0.17630000
H        0.15950000      -0.54540000      -2.10510000
H        1.44120000       0.53530000      -1.54870000
H        1.31560000      -2.44680000      -1.14710000
H        4.90590000      -1.04770000      -0.55480000
H        1.61460000      -2.23580000       1.25260000
H        1.73270000       0.76780000       1.15920000
H        0.64640000      -0.22640000       2.13070000
