16
Properties=species:S:1:pos:R:3 pbc="F F F"
N       -0.01070000      -1.12450000       0.38430000
C        0.01200000       0.01590000       0.19530000
C        0.02670000       1.42880000      -0.09210000
C       -0.83260000       1.94330000      -1.24620000
C       -0.27490000       3.35490000      -1.54460000
C        1.21220000       3.30740000      -1.11930000
C        1.26590000       2.27310000      -0.00810000
N        0.26430000       2.32350000       1.05680000
H       -0.69930000       1.27600000      -2.10440000
H       -1.89940000       1.94850000      -1.00260000
H       -0.39760000       3.62920000      -2.59430000
H       -0.81570000       4.11000000      -0.96560000
H        1.84650000       2.96710000      -1.94580000
H        1.59110000       4.28490000      -0.80310000
H        2.22020000       1.84990000       0.28840000
H       -0.32560000       3.15020000       0.99290000
