19
Properties=species:S:1:pos:R:3 pbc="F F F"
C        0.18010000       1.39650000      -0.07790000
O       -0.28420000       0.08720000       0.21040000
C        0.52800000      -0.58880000       1.12770000
C        0.07730000      -1.98220000       1.55570000
C        0.19920000      -2.99250000       0.46540000
C       -0.06970000      -2.76860000      -1.00940000
C        1.47850000      -2.57240000       1.18760000
C        1.89880000      -1.21740000       0.70740000
O        2.92520000      -0.74740000       0.30010000
H        1.18550000       1.38340000      -0.51560000
H       -0.52200000       1.83370000      -0.79100000
H        0.20170000       2.01840000       0.83030000
H        0.72770000       0.04270000       2.01190000
H       -0.47840000      -2.17910000       2.46350000
H       -0.10770000      -3.98060000       0.80550000
H        0.20490000      -1.76360000      -1.33030000
H        0.48710000      -3.49430000      -1.61150000
H       -1.13590000      -2.90190000      -1.22140000
H        2.09500000      -3.28940000       1.71510000
