19
Properties=species:S:1:pos:R:3 pbc="F F F"
C        0.63140000       1.38480000      -0.30810000
C        0.19970000      -0.01770000       0.05730000
O        0.86380000      -1.05510000      -0.73520000
C        1.22180000      -1.80660000       0.44270000
C        2.66350000      -1.41250000       0.89120000
O        3.47020000      -0.92500000      -0.14290000
C        2.05530000      -0.36320000       1.88890000
C        0.63390000      -0.69230000       1.37760000
O       -0.42150000      -0.80400000       2.27740000
H        1.71660000       1.50190000      -0.24360000
H        0.32280000       1.61830000      -1.33200000
H        0.15750000       2.11040000       0.36140000
H       -0.88690000      -0.12750000      -0.04990000
H        0.92360000      -2.85550000       0.39020000
H        3.20190000      -2.21530000       1.40380000
H        2.85490000      -0.70700000      -0.86060000
H        2.18430000      -0.67070000       2.93330000
H        2.41010000       0.66460000       1.78690000
H       -0.08220000      -1.13540000       3.11500000
