20
Properties=species:S:1:pos:R:3 pbc="F F F"
C        0.26130000       1.41120000      -0.33420000
C       -0.15570000       0.03820000       0.18750000
O       -0.12930000      -0.96650000      -0.85860000
C        1.14680000      -1.63170000      -0.86900000
C        1.59620000      -1.58380000       0.56700000
C        2.87530000      -1.09810000       1.27350000
C        2.01410000       0.00610000       1.98810000
C        0.78000000      -0.52860000       1.23230000
N        0.61490000      -1.94540000       1.60620000
H        1.29570000       1.40690000      -0.69240000
H       -0.38680000       1.70280000      -1.16440000
H        0.17650000       2.16710000       0.45340000
H       -1.20330000       0.07530000       0.51070000
H        0.96880000      -2.62920000      -1.28520000
H        1.87530000      -1.11640000      -1.51400000
H        3.36460000      -1.83520000       1.91340000
H        3.60650000      -0.67430000       0.58110000
H        1.94490000      -0.05350000       3.07610000
H        2.30120000       1.01800000       1.69730000
H       -0.21800000      -2.29200000       1.13110000
