21
Properties=species:S:1:pos:R:3 pbc="F F F"
C        0.07430000       1.50190000       0.09140000
C       -0.03580000      -0.02800000       0.03370000
O        0.57090000      -0.50110000       1.24440000
C       -1.44460000      -0.44800000      -0.01540000
C       -2.58390000      -0.83110000      -0.05620000
C        0.70240000      -0.57820000      -1.20420000
C        2.24660000      -0.41440000      -1.27470000
C        2.32470000      -1.83420000      -1.89750000
C        0.89540000      -2.11200000      -1.35830000
H        1.12770000       1.78580000       0.16300000
H       -0.35690000       1.95520000      -0.80450000
H       -0.45070000       1.88200000       0.97010000
H        0.25860000      -1.39860000       1.39850000
H       -3.59420000      -1.15730000      -0.08750000
H        0.22440000      -0.16720000      -2.09940000
H        2.64510000       0.42160000      -1.85410000
H        2.67290000      -0.39090000      -0.26860000
H        2.34380000      -1.79830000      -2.99050000
H        3.12890000      -2.49100000      -1.55830000
H        0.93240000      -2.61300000      -0.38570000
H        0.19460000      -2.64990000      -1.99980000
