21
Properties=species:S:1:pos:R:3 pbc="F F F"
C        0.06850000       1.44930000      -0.26310000
C       -0.01360000      -0.02430000       0.09190000
C       -1.11130000      -0.73920000      -0.67800000
O        1.24530000      -0.72230000       0.15510000
C        0.52100000      -0.54170000       1.37900000
C        1.17430000       0.36330000       2.40690000
C       -0.05230000      -1.82320000       2.00120000
C        0.96050000      -2.64720000       2.65430000
C        1.79640000      -3.32340000       3.19130000
H        0.86700000       1.96800000       0.26550000
H        0.25100000       1.55750000      -1.33780000
H       -0.87960000       1.94970000      -0.03710000
H       -1.03080000      -0.49360000      -1.74250000
H       -1.04380000      -1.82330000      -0.58880000
H       -2.10240000      -0.41700000      -0.33990000
H        1.72520000       1.17770000       1.93850000
H        0.42430000       0.78810000       3.08370000
H        1.87910000      -0.21700000       3.00940000
H       -0.81680000      -1.53750000       2.73680000
H       -0.56000000      -2.42180000       1.24280000
H        2.53400000      -3.92710000       3.65890000
