16
Properties=species:S:1:pos:R:3 pbc="F F F"
C       -0.35090000       1.97660000       0.37750000
C       -0.21280000       0.58600000      -0.23430000
C        0.76700000      -0.28280000       0.55030000
O        1.43410000      -1.15850000       0.04790000
N       -1.51600000      -0.08710000      -0.21170000
C       -1.66780000      -1.12640000      -0.94930000
N       -0.75390000      -1.74930000      -1.75740000
C       -2.99810000      -1.71090000      -0.98730000
N       -4.04330000      -2.20100000      -1.04070000
H        0.60570000       2.50900000       0.36680000
H       -1.08140000       2.55980000      -0.18780000
H       -0.70500000       1.90550000       1.41040000
H        0.17450000       0.65040000      -1.26310000
H        0.80170000      -0.09780000       1.64450000
H        0.22530000      -1.65520000      -1.51030000
H       -1.02430000      -2.61960000      -2.18650000
