23
Properties=species:S:1:pos:R:3 pbc="F F F"
C        0.08690000       1.58160000      -0.01510000
C        0.13900000       0.05140000      -0.03970000
C        0.44570000      -0.54710000       1.33900000
C        0.66880000      -2.06260000       1.31780000
C       -0.56440000      -2.85880000       0.91740000
O        1.80250000      -2.40770000       0.45640000
C        2.63770000      -2.72640000       1.58380000
C        1.44250000      -2.60950000       2.55200000
O        1.53730000      -1.71200000       3.63130000
H        1.04220000       2.00510000       0.31440000
H       -0.13290000       1.98800000      -1.00750000
H       -0.68700000       1.94310000       0.67150000
H       -0.81650000      -0.33300000      -0.41640000
H        0.90860000      -0.28510000      -0.74350000
H        1.34370000      -0.07150000       1.74710000
H       -0.36270000      -0.31840000       2.04500000
H       -0.89490000      -2.59230000      -0.09000000
H       -0.34630000      -3.93060000       0.92560000
H       -1.38840000      -2.66390000       1.61250000
H        3.11280000      -3.70930000       1.48070000
H        3.40840000      -1.96520000       1.76640000
H        1.05820000      -3.58410000       2.87880000
H        1.96750000      -2.16040000       4.36530000
