18
Properties=species:S:1:pos:R:3 pbc="F F F"
C       -0.02980000       1.53500000       0.04710000
C        1.28480000       0.80880000      -0.02760000
C       -0.03220000       0.02920000      -0.03030000
C       -0.46170000      -0.67410000      -1.28070000
O       -0.83090000       0.11660000      -2.41250000
C        0.37240000      -0.64210000      -2.50590000
C        1.68280000       0.09060000      -2.50320000
N        1.65290000       1.55920000      -2.44470000
C        2.12790000       0.81880000      -1.26900000
H       -0.30690000       1.99580000       0.98830000
H       -0.33900000       2.06050000      -0.84810000
H        1.86160000       0.74180000       0.88870000
H       -0.26850000      -0.51540000       0.87780000
H       -1.09980000      -1.54350000      -1.12250000
H        0.31930000      -1.48500000      -3.19510000
H        2.45360000      -0.38000000      -3.10900000
H        2.43570000       1.94590000      -2.96390000
H        3.19840000       0.81850000      -1.07890000
