18
Properties=species:S:1:pos:R:3 pbc="F F F"
N       -0.01640000       1.51080000      -0.18110000
C       -0.03970000       0.07210000      -0.03920000
C        0.89320000      -0.82250000      -0.92040000
O        1.60570000      -1.26990000       0.27570000
C        0.86900000      -0.45900000       1.09850000
O        0.98850000      -0.31190000       2.27210000
C       -1.47120000      -0.41680000       0.03990000
C       -1.85680000      -1.67530000       0.77870000
C       -2.24720000      -0.32490000       1.32580000
H        0.91350000       1.85810000      -0.39220000
H       -0.63830000       1.81090000      -0.92450000
H        0.43010000      -1.66850000      -1.43210000
H        1.56610000      -0.27970000      -1.58940000
H       -2.02460000      -0.21930000      -0.87680000
H       -2.62470000      -2.29990000       0.33630000
H       -1.08630000      -2.22880000       1.30440000
H       -1.71150000       0.03200000       2.19750000
H       -3.28720000      -0.02370000       1.27420000
