17
Properties=species:S:1:pos:R:3 pbc="F F F"
C        0.01760000       1.47240000       0.03000000
O        1.47320000       1.48560000      -0.02050000
C        1.52820000       0.06060000       0.03900000
C        2.55010000      -0.69300000      -0.79310000
C        2.73890000      -1.95630000       0.02250000
C        2.13200000      -1.92100000       1.21300000
C        1.44200000      -0.60660000       1.43680000
O       -0.02070000      -0.64880000       1.36740000
C       -0.00920000      -0.06990000       0.05380000
H       -0.37870000       1.94780000       0.93290000
H       -0.40740000       1.94260000      -0.86450000
H        2.20770000      -0.89280000      -1.81530000
H        3.47720000      -0.11000000      -0.88170000
H        3.31950000      -2.79440000      -0.34850000
H        2.13890000      -2.72000000       1.94520000
H        1.77790000      -0.04920000       2.31740000
H       -0.63760000      -0.60220000      -0.66260000
