16
Properties=species:S:1:pos:R:3 pbc="F F F"
O        0.04940000       1.37450000      -0.02870000
C        0.01970000       0.00090000      -0.00850000
C        1.00890000      -0.53030000      -1.03080000
O        1.66290000       0.23990000      -1.69810000
C       -0.01980000      -0.65650000       1.45880000
N       -1.43700000      -0.17510000       1.49020000
C       -1.45070000      -0.64570000       0.06920000
C       -1.10390000      -2.13250000       0.16910000
C       -0.14140000      -2.13980000       1.10380000
H        0.70920000       1.60900000      -0.70530000
H        1.10950000      -1.62000000      -1.14340000
H        0.66020000      -0.32280000       2.24150000
H       -2.01560000      -0.77570000       2.08140000
H       -2.25050000      -0.30080000      -0.58500000
H       -1.49310000      -2.93690000      -0.43900000
H        0.47150000      -2.95170000       1.46890000
