21
Properties=species:S:1:pos:R:3 pbc="F F F"
C        0.05860000       1.55350000      -0.10170000
C       -0.01650000       0.02090000       0.03270000
C       -1.41590000      -0.52220000       0.03090000
C       -2.16330000      -0.90770000       1.12240000
N       -3.38460000      -1.33860000       0.68620000
C       -3.45290000      -1.23210000      -0.68910000
C       -2.24130000      -0.73300000      -1.12340000
N       -1.82830000      -0.52890000      -2.44860000
C       -2.84620000      -0.62390000      -3.47740000
H        1.09750000       1.90030000      -0.11570000
H       -0.42120000       1.90210000      -1.02330000
H       -0.45500000       2.04140000       0.73260000
H        0.55330000      -0.43880000      -0.78570000
H        0.48800000      -0.27780000       0.95890000
H       -1.90910000      -0.91380000       2.17100000
H       -4.11950000      -1.68940000       1.27210000
H       -4.33570000      -1.52910000      -1.22860000
H       -1.26360000       0.30340000      -2.54770000
H       -3.71080000       0.04170000      -3.31090000
H       -2.40490000      -0.38580000      -4.44870000
H       -3.22440000      -1.65160000      -3.52520000
