19
Properties=species:S:1:pos:R:3 pbc="F F F"
O       -0.10340000       1.30790000       0.13510000
C       -0.01160000      -0.10440000       0.23600000
C       -1.41980000      -0.64740000       0.08170000
C       -2.11440000      -0.54480000      -1.29870000
C       -2.75270000      -1.93510000      -1.03850000
O       -2.92980000      -2.84250000      -2.08050000
C       -1.66140000      -2.20990000       0.05680000
C       -0.46720000      -2.97320000      -0.43500000
O       -0.20180000      -3.17360000      -1.60170000
H        0.78630000       1.67240000       0.15460000
H        0.64020000      -0.51820000      -0.54960000
H        0.40750000      -0.40980000       1.20970000
H       -2.04610000      -0.21270000       0.86610000
H       -2.77830000       0.30240000      -1.47620000
H       -1.38310000      -0.60400000      -2.11060000
H       -3.72610000      -1.82560000      -0.55040000
H       -2.04780000      -3.03370000      -2.43010000
H       -1.98790000      -2.64240000       1.00770000
H        0.21230000      -3.35830000       0.35730000
