21
Properties=species:S:1:pos:R:3 pbc="F F F"
C       -0.09220000       1.57670000      -0.02390000
C        0.03240000       0.04390000       0.01900000
C        0.66500000      -0.47670000      -1.28220000
C        0.93830000      -1.98100000      -1.23590000
C        1.79030000      -2.35730000      -0.03200000
O        2.56060000      -3.29840000      -0.04940000
C        1.58550000      -1.54210000       1.17850000
C        0.77860000      -0.46700000       1.24270000
C        0.55200000       0.24080000       2.55040000
H        0.89510000       2.05150000      -0.03770000
H       -0.61950000       1.88100000      -0.93330000
H       -0.64780000       1.97430000       0.82900000
H       -0.99080000      -0.36310000       0.08860000
H        0.01490000      -0.23100000      -2.12910000
H        1.61010000       0.05770000      -1.44770000
H       -0.01030000      -2.53090000      -1.14770000
H        1.43330000      -2.34440000      -2.14010000
H        2.11560000      -1.89160000       2.06050000
H        1.04850000      -0.27840000       3.37300000
H        0.92300000       1.27160000       2.52160000
H       -0.51960000       0.30360000       2.77940000
