17
Properties=species:S:1:pos:R:3 pbc="F F F"
C       -0.54520000       0.92690000       0.09830000
O        0.04860000      -0.35000000      -0.05950000
C        0.89100000      -0.45930000      -1.18880000
C        1.69810000      -1.77090000      -1.10810000
C        1.01460000      -2.72700000      -2.07250000
O       -0.37960000      -2.85160000      -1.82690000
C        0.04010000      -2.01100000      -2.91920000
C        0.06240000      -0.56500000      -2.50150000
O       -0.43890000       0.35920000      -3.09030000
H        0.22120000       1.71260000       0.18600000
H       -1.20820000       1.18290000      -0.73640000
H       -1.12560000       0.88780000       1.02270000
H        1.54240000       0.42430000      -1.26330000
H        2.73650000      -1.60980000      -1.41510000
H        1.69660000      -2.15540000      -0.08520000
H        1.51550000      -3.62520000      -2.42460000
H       -0.26850000      -2.30860000      -3.91630000
