20
Properties=species:S:1:pos:R:3 pbc="F F F"
C        0.07770000       1.24630000      -0.56520000
C        0.00270000      -0.08270000       0.18190000
O        0.21160000       0.08930000       1.58560000
C       -1.36640000      -0.74200000       0.05500000
N       -1.38060000      -2.01570000       0.77620000
H       -1.02950000      -3.40710000      -0.48690000
H       -1.01120000      -1.85320000       1.70590000
C       -2.68280000      -2.67430000       0.81750000
C       -2.86410000      -3.61840000      -0.38360000
O       -1.70370000      -3.92150000      -0.98550000
O       -3.92570000      -4.05920000      -0.72960000
H        1.06630000       1.70190000      -0.44380000
H       -0.09280000       1.10460000      -1.63740000
H       -0.66930000       1.94680000      -0.17980000
H        0.75540000      -0.77760000      -0.22280000
H        1.10990000       0.40450000       1.72370000
H       -2.13240000      -0.04580000       0.43660000
H       -1.58660000      -0.92630000      -1.00270000
H       -2.74570000      -3.29550000       1.71740000
H       -3.53650000      -1.98400000       0.84110000
