13
Properties=species:S:1:pos:R:3 pbc="F F F"
O       -0.04180000       1.34320000       0.00980000
C        1.13860000       2.05670000       0.00210000
N        2.31830000       1.57360000      -0.01200000
C        2.41430000       0.20270000      -0.02040000
C        3.46630000      -0.66690000      -0.03540000
N        3.01550000      -1.98780000      -0.03820000
C        1.70070000      -1.98160000      -0.02510000
C        1.20500000      -0.63370000      -0.01310000
C        0.01520000      -0.00500000       0.00190000
H        0.92900000       3.11870000       0.00990000
H        4.52390000      -0.44880000      -0.04460000
H        1.12100000      -2.89590000      -0.02430000
H       -0.97170000      -0.45300000       0.00920000
