17
Properties=species:S:1:pos:R:3 pbc="F F F"
C        0.05630000       1.54360000       0.00700000
C       -0.06020000       0.05200000       0.05400000
C       -1.35900000      -0.76850000      -0.02890000
C       -0.75970000      -1.79760000       0.96950000
O       -0.62560000      -3.07860000       0.40530000
C        0.53420000      -0.94470000       1.03920000
N        1.08580000      -0.76690000      -0.30440000
C        1.35900000      -0.76280000       2.19110000
N        1.98080000      -0.63420000       3.15900000
H        1.06400000       1.85610000       0.29000000
H       -0.14060000       1.90790000      -1.00780000
H       -0.66530000       2.01510000       0.68100000
H       -2.23210000      -0.25420000       0.37800000
H       -1.60150000      -1.16960000      -1.01680000
H       -1.28990000      -1.81990000       1.92840000
H       -0.20500000      -3.65930000       1.04940000
H        0.84990000      -1.57230000      -0.88490000
