14
Properties=species:S:1:pos:R:3 pbc="F F F"
O       -0.16890000       1.47400000      -0.08820000
C       -0.01930000       0.08380000      -0.05520000
C       -1.30510000      -0.73900000      -0.08750000
C       -0.70490000      -1.77910000      -0.92880000
N       -1.79160000      -0.88150000      -1.50560000
C       -0.73910000      -0.27480000      -2.31530000
O       -0.76690000       0.09430000      -3.44780000
C        0.37420000      -0.65310000      -1.35740000
O        1.68520000      -0.72600000      -1.73300000
H        0.70490000       1.87830000      -0.10550000
H        0.61380000      -0.25660000       0.77600000
H       -2.06770000      -0.81450000       0.67530000
H       -0.75350000      -2.85520000      -0.98790000
H        1.71970000      -0.78710000      -2.69690000
