19
Properties=species:S:1:pos:R:3 pbc="F F F"
C        0.20840000       1.47060000      -0.01780000
C        0.09570000      -0.01570000       0.06700000
C       -0.89080000      -0.80850000       0.86080000
C        0.59460000      -1.08030000       1.02690000
C        1.12460000      -1.79480000      -0.22690000
C        0.71400000      -3.21570000      -0.54670000
O        0.50420000      -0.78120000      -1.08150000
C        2.63600000      -1.59240000      -0.30490000
O        3.45170000      -2.46060000      -0.13990000
H        1.22420000       1.77760000      -0.28480000
H       -0.47560000       1.86040000      -0.78010000
H       -0.05650000       1.92920000       0.93900000
H       -1.33300000      -0.29050000       1.70660000
H       -1.54290000      -1.52290000       0.36770000
H        1.10890000      -1.00920000       1.97610000
H       -0.34460000      -3.38070000      -0.33730000
H        0.89710000      -3.42900000      -1.60430000
H        1.31500000      -3.91030000       0.04550000
H        2.92330000      -0.54020000      -0.52350000
