15
Properties=species:S:1:pos:R:3 pbc="F F F"
O        0.16710000       1.29560000       0.28850000
C        0.06050000      -0.06520000      -0.00560000
C       -1.39610000      -0.54900000       0.05280000
C       -1.46620000      -2.02280000      -0.29240000
O       -2.32110000      -2.78020000       0.08990000
C       -0.30900000      -2.54530000      -1.15120000
O        0.37220000      -1.55180000      -1.93130000
C        0.62000000      -0.34250000      -1.39920000
O        1.22230000       0.49400000      -2.02020000
H        0.71220000       1.67460000      -0.41940000
H        0.65570000      -0.66070000       0.71130000
H       -1.84090000      -0.37700000       1.03510000
H       -1.99010000       0.01490000      -0.67860000
H        0.40680000      -3.04850000      -0.48630000
H       -0.68560000      -3.28390000      -1.85970000
