25
Properties=species:S:1:pos:R:3 pbc="F F F"
C       -0.14470000       1.70620000      -0.02310000
C       -0.20070000       0.17500000      -0.09850000
C        0.65510000      -0.46090000      -1.20950000
C        0.23120000       0.05440000      -2.59960000
C        2.17540000      -0.25750000      -1.00300000
C        2.80270000      -1.45030000      -1.74640000
O        1.76900000      -2.41920000      -1.93030000
C        0.58670000      -2.01520000      -1.23420000
C        0.50630000      -2.72180000       0.12100000
H        0.88020000       2.06450000       0.12050000
H       -0.53920000       2.17760000      -0.92780000
H       -0.74050000       2.06850000       0.82050000
H        0.11340000      -0.23060000       0.86940000
H       -1.24550000      -0.13580000      -0.23590000
H        0.46430000       1.11540000      -2.72750000
H        0.74260000      -0.50030000      -3.39130000
H       -0.84710000      -0.07180000      -2.74930000
H        2.53100000       0.70100000      -1.38920000
H        2.42080000      -0.29050000       0.06380000
H        3.18310000      -1.16390000      -2.73490000
H        3.63740000      -1.89280000      -1.18710000
H       -0.25990000      -2.34650000      -1.84900000
H        1.29890000      -2.39470000       0.80210000
H       -0.45800000      -2.54980000       0.60870000
H        0.62300000      -3.79780000      -0.03480000
