19
Properties=species:S:1:pos:R:3 pbc="F F F"
C       -0.11900000       1.44560000       0.00660000
N        0.02710000       0.03690000       0.32080000
C       -1.13600000      -0.83780000       0.14110000
C       -0.48840000      -2.23970000       0.22460000
N        0.95150000      -2.02190000       0.01770000
C        1.14070000      -0.75000000       0.09030000
C        2.54620000      -0.20490000       0.01390000
C        3.61550000      -1.19920000      -0.37660000
O        2.79710000       0.95530000       0.26130000
H        0.81950000       1.96180000       0.19110000
H       -0.42160000       1.60190000      -1.04190000
H       -0.89670000       1.87730000       0.64550000
H       -1.89250000      -0.65500000       0.91060000
H       -1.60190000      -0.65220000      -0.84050000
H       -0.63520000      -2.69380000       1.21340000
H       -0.88360000      -2.94320000      -0.51340000
H        3.42070000      -1.58310000      -1.38280000
H        4.58720000      -0.70550000      -0.34310000
H        3.59120000      -2.06480000       0.28930000
