19
Properties=species:S:1:pos:R:3 pbc="F F F"
C        0.10600000       1.56400000       0.12610000
C        0.34620000       0.06790000      -0.04340000
N        0.38050000      -0.59630000       1.26070000
C        0.61400000      -2.00810000       1.22580000
C        1.98890000      -2.58560000       0.82790000
C        1.58330000      -2.58770000       2.26060000
O        2.24400000      -1.68890000       3.09500000
C       -0.54380000      -2.80830000       0.89940000
N       -1.45690000      -3.46760000       0.63370000
H        0.91860000       2.03270000       0.69370000
H        0.05470000       2.05860000      -0.84800000
H       -0.82990000       1.74730000       0.66120000
H       -0.47120000      -0.37760000      -0.62260000
H        1.27040000      -0.10240000      -0.62360000
H        1.07560000      -0.17230000       1.86750000
H        2.03550000      -3.53070000       0.29980000
H        2.72580000      -1.84670000       0.53330000
H        1.30630000      -3.53600000       2.71520000
H        1.71250000      -1.57100000       3.89090000
