17
Properties=species:S:1:pos:R:3 pbc="F F F"
O       -0.19290000       0.06340000      -0.03250000
C       -0.02140000       1.25460000       0.02760000
C        1.32520000       1.93960000       0.00610000
C        1.41360000       2.99460000      -1.09020000
C        0.86490000       4.32690000      -0.61000000
C        2.36160000       4.11130000      -0.68850000
C        2.43170000       4.02080000       0.85250000
C        0.93530000       4.23640000       0.93540000
C        1.51780000       2.86010000       1.20540000
H       -0.88190000       1.95880000       0.10650000
H        2.10900000       1.18050000      -0.07390000
H        1.32210000       2.72870000      -2.13660000
H        0.22530000       4.97290000      -1.19430000
H        3.09380000       4.55010000      -1.35140000
H        3.22330000       4.38310000       1.49300000
H        0.35470000       4.80670000       1.64640000
H        1.51990000       2.47350000       2.21760000
