21
Properties=species:S:1:pos:R:3 pbc="F F F"
C        0.11280000       1.72640000      -0.29510000
C        0.00860000       0.23860000       0.02620000
O        0.60260000      -0.53240000      -1.02730000
C        1.84060000      -1.03990000      -0.56160000
O        2.08680000      -0.46880000       0.69900000
C        0.80800000      -0.22000000       1.26210000
C        0.81780000       0.65340000       2.53230000
C       -0.22500000      -0.31100000       3.16280000
C        0.15310000      -1.36810000       2.08980000
H        1.15450000       2.05860000      -0.25520000
H       -0.26940000       1.90790000      -1.30320000
H       -0.47490000       2.32870000       0.40510000
H       -1.04360000      -0.05970000       0.09830000
H        1.77680000      -2.13950000      -0.49630000
H        2.65700000      -0.75690000      -1.23730000
H        1.79200000       0.57560000       3.02140000
H        0.55810000       1.70860000       2.43070000
H       -0.07860000      -0.58720000       4.20830000
H       -1.24860000       0.05360000       3.04160000
H       -0.65160000      -1.94030000       1.62180000
H        0.92280000      -2.05620000       2.44940000
