10
Properties=species:S:1:pos:R:3 pbc="F F F"
C       -0.04760000       1.38070000       0.01060000
C        1.18860000       2.02640000       0.00180000
N        2.35940000       1.38870000      -0.01330000
N        2.37740000       0.05690000      -0.02080000
C        1.22440000      -0.61250000      -0.01300000
C       -0.02880000      -0.00070000       0.00280000
H       -0.97220000       1.94700000       0.02290000
H        1.25800000       3.11050000       0.00710000
H        1.32320000      -1.69420000      -0.02000000
H       -0.93770000      -0.59190000       0.00860000
