21
Properties=species:S:1:pos:R:3 pbc="F F F"
C        0.09200000       1.51330000       0.09240000
C       -0.02490000      -0.00790000      -0.01810000
C        0.67750000      -0.59840000      -1.26260000
C        0.61990000      -2.13920000      -1.27540000
N        1.39260000      -2.68080000      -2.37950000
C        2.79620000      -2.98120000      -2.11040000
C        1.79790000      -4.07560000      -2.26620000
C        0.10190000      -0.04640000      -2.49400000
N       -0.38120000       0.41660000      -3.43650000
H        1.14010000       1.82730000       0.14820000
H       -0.36120000       2.00890000      -0.77100000
H       -0.41280000       1.87440000       0.99300000
H        0.41920000      -0.48200000       0.86490000
H       -1.08060000      -0.30270000      -0.03610000
H        1.73490000      -0.30180000      -1.24040000
H        0.97410000      -2.50060000      -0.29260000
H       -0.42020000      -2.46440000      -1.38960000
H        3.49170000      -2.74730000      -2.91060000
H        3.17510000      -2.79760000      -1.10540000
H        1.51470000      -4.61880000      -1.36570000
H        1.75020000      -4.65620000      -3.18260000
