15
Properties=species:S:1:pos:R:3 pbc="F F F"
O       -0.03260000      -0.08530000       0.05970000
C       -0.04590000       1.12580000       0.01420000
N       -1.18930000       1.87270000      -0.09790000
C       -1.26170000       3.29460000       0.05110000
C       -0.81320000       3.94990000       1.32710000
C        0.04950000       4.03630000       0.07170000
C        1.31180000       3.24640000      -0.01510000
O        2.40800000       3.74330000      -0.14150000
N        1.14090000       1.87050000       0.05610000
H       -2.03200000       1.33130000       0.01950000
H       -2.08170000       3.73970000      -0.50170000
H       -1.30110000       4.86360000       1.64600000
H       -0.47130000       3.30440000       2.12850000
H        0.11980000       4.99820000      -0.41940000
H        1.98350000       1.31220000       0.03550000
