16
Properties=species:S:1:pos:R:3 pbc="F F F"
C       -0.36810000       1.50330000       0.18340000
N       -0.38540000       0.04800000       0.23620000
C        0.53840000      -0.54980000       0.82900000
C        0.86880000      -1.99900000       1.10640000
C        2.09130000      -1.41240000       1.84990000
C        3.47350000      -1.71960000       1.31920000
O        1.65380000      -0.05630000       1.49240000
H        0.48320000       1.96180000       0.70020000
H       -0.35630000       1.82400000      -0.86430000
H       -1.29480000       1.88860000       0.62310000
H        0.13750000      -2.53030000       1.71770000
H        1.10230000      -2.59300000       0.22000000
H        2.04740000      -1.52670000       2.93770000
H        3.50780000      -1.60120000       0.23180000
H        4.21520000      -1.04900000       1.76320000
H        3.75210000      -2.74950000       1.56650000
