18
Properties=species:S:1:pos:R:3 pbc="F F F"
C       -0.02660000       1.42330000       0.03100000
C        0.00660000      -0.06890000       0.03640000
C       -0.58940000      -1.09490000      -0.90640000
C        0.47020000      -2.03790000      -0.30160000
C       -0.27250000      -2.14640000       1.07490000
C        0.96260000      -1.47270000       1.70160000
N        1.24210000      -0.86840000       0.34310000
C       -1.12120000      -0.97120000       0.52320000
O       -2.29370000      -0.43680000       1.00390000
H        0.63750000       1.83290000      -0.73620000
H       -1.04400000       1.77930000      -0.15550000
H        0.29230000       1.81940000       1.00210000
H       -1.03930000      -0.99390000      -1.88500000
H        1.02760000      -2.83230000      -0.79410000
H       -0.76920000      -3.04030000       1.45490000
H        0.81920000      -0.75360000       2.51440000
H        1.76330000      -2.17330000       1.95640000
H       -3.01830000      -1.03080000       0.77940000
