17
Properties=species:S:1:pos:R:3 pbc="F F F"
C       -0.20970000       1.30890000       0.05100000
N       -0.09430000      -0.11830000      -0.15900000
C        0.65820000      -0.64630000      -1.15940000
O        1.27330000      -0.02450000      -1.99600000
O        0.62240000      -2.00760000      -1.09070000
C        1.37180000      -2.69290000      -2.10940000
C        1.12050000      -4.17400000      -1.89310000
O       -0.24370000      -4.51280000      -2.04880000
H        0.31460000       1.80360000      -0.76730000
H       -1.25790000       1.62720000       0.04570000
H        0.24520000       1.61760000       0.99950000
H       -0.51830000      -0.76010000       0.48910000
H        1.02220000      -2.37240000      -3.09490000
H        2.43490000      -2.44630000      -2.01920000
H        1.67830000      -4.74370000      -2.64340000
H        1.49920000      -4.46640000      -0.90060000
H       -0.73770000      -3.92160000      -1.47020000
