18
Properties=species:S:1:pos:R:3 pbc="F F F"
C        0.07690000       1.55260000      -0.16580000
C       -0.10670000       0.03820000       0.01010000
C        0.64480000      -0.48870000       1.20050000
C        2.11430000      -0.97450000       1.17280000
O        3.14230000      -0.49230000       1.96370000
C        1.06310000      -1.88720000       1.67730000
O        0.79160000      -1.52290000       3.06180000
C        0.28200000      -0.28600000       2.63320000
N       -0.32010000       0.60090000       3.27960000
H        1.13100000       1.80470000      -0.31940000
H       -0.48950000       1.91350000      -1.02940000
H       -0.27120000       2.08530000       0.72300000
H       -1.17270000      -0.19400000       0.12280000
H        0.23330000      -0.49000000      -0.88910000
H        2.45490000      -1.16170000       0.15740000
H        2.90480000      -0.67460000       2.88230000
H        0.78280000      -2.88730000       1.37180000
H       -0.41570000       0.35200000       4.26530000
