20
Properties=species:S:1:pos:R:3 pbc="F F F"
C       -0.26360000       1.51700000       0.05040000
C        0.03880000       0.01410000       0.10700000
C        0.62710000      -0.49360000      -1.21790000
C        1.14020000      -1.92670000      -1.16700000
O        1.25010000      -2.60400000      -2.16180000
C        1.49790000      -2.50570000       0.20900000
N        1.63810000      -1.60530000       1.34810000
C        2.41930000      -0.38120000       1.17120000
C        0.93280000      -0.32390000       1.29020000
H        0.65520000       2.09320000      -0.10520000
H       -0.95040000       1.74840000      -0.77030000
H       -0.72400000       1.86410000       0.98090000
H       -0.91360000      -0.51180000       0.27200000
H       -0.09910000      -0.42500000      -2.03360000
H        1.47400000       0.13910000      -1.51860000
H        0.70380000      -3.22740000       0.44690000
H        2.41460000      -3.09370000       0.09610000
H        3.04630000      -0.10650000       2.01520000
H        2.87240000      -0.18510000       0.20180000
H        0.51770000      -0.01830000       2.25040000
