18
Properties=species:S:1:pos:R:3 pbc="F F F"
O       -0.02190000       0.04930000      -0.30060000
C       -0.05640000       1.22080000      -0.03400000
C       -1.32170000       2.03170000       0.29910000
C       -0.80910000       3.33290000       0.88400000
C        0.68660000       3.32110000       0.92860000
C        1.15380000       2.16450000       0.04220000
C        1.32480000       2.84160000      -1.34500000
C        0.23390000       3.93730000      -1.34130000
N       -0.01950000       4.28400000       0.07450000
H       -1.93880000       2.14920000      -0.60000000
H       -1.92910000       1.47960000       1.02330000
H       -1.40360000       3.81310000       1.65520000
H        1.28690000       3.69290000       1.75210000
H        2.04650000       1.63240000       0.37140000
H        2.31900000       3.29570000      -1.39960000
H        1.23250000       2.13730000      -2.17680000
H        0.56450000       4.84080000      -1.86030000
H       -0.68720000       3.60430000      -1.83290000
