21
Properties=species:S:1:pos:R:3 pbc="F F F"
O       -0.35740000       1.26530000      -0.40750000
C       -0.05190000      -0.06730000      -0.08740000
C       -0.42920000      -0.52620000       1.31360000
C       -1.28220000      -0.91160000       0.13070000
C        1.14310000      -0.62140000      -0.76160000
C        1.86470000       0.00000000      -1.70070000
C        3.05740000      -0.80970000      -2.14700000
C        2.75710000      -2.21350000      -1.56410000
C        1.75180000      -1.96830000      -0.41300000
H        0.38440000       1.80610000      -0.11200000
H        0.16900000      -1.29120000       1.79510000
H       -0.81260000       0.24380000       1.97330000
H       -2.22660000      -0.39590000       0.00260000
H       -1.27090000      -1.94050000      -0.20930000
H        1.63870000       0.98440000      -2.09280000
H        3.18100000      -0.82670000      -3.23590000
H        3.99050000      -0.39050000      -1.74180000
H        2.28030000      -2.82870000      -2.33370000
H        3.65500000      -2.74370000      -1.23620000
H        2.25690000      -1.91640000       0.56220000
H        1.01080000      -2.77170000      -0.33040000
