22
Properties=species:S:1:pos:R:3 pbc="F F F"
C        1.41980000      -1.14190000      -1.07380000
C        0.37280000      -0.40470000      -0.22030000
C       -1.04080000      -0.76490000      -0.69650000
C        0.62030000      -0.63730000       1.27850000
C        1.77580000       0.16640000       1.83770000
O        1.43950000       1.54860000       1.76740000
C       -0.50940000      -0.88270000       2.25260000
C        0.42180000      -2.00910000       1.88180000
H        1.30880000      -2.22810000      -0.97880000
H        1.30660000      -0.88670000      -2.13270000
H        2.44370000      -0.88770000      -0.78310000
H        0.50490000       0.67230000      -0.37960000
H       -1.28020000      -1.81870000      -0.51060000
H       -1.80350000      -0.15170000      -0.20890000
H       -1.12570000      -0.60090000      -1.77560000
H        1.96280000      -0.13870000       2.87960000
H        2.69630000      -0.03810000       1.26930000
H        2.22950000       2.05940000       1.96640000
H       -0.41990000      -0.44270000       3.24010000
H       -1.52580000      -0.92620000       1.88200000
H        0.03220000      -2.79180000       1.23960000
H        1.13620000      -2.36250000       2.61850000
