22
Properties=species:S:1:pos:R:3 pbc="F F F"
C        0.17430000       1.46810000       0.01320000
N       -0.08170000       0.06040000       0.24310000
C       -1.18060000      -0.58320000      -0.25290000
O       -2.03680000      -0.02040000      -0.91440000
C       -1.24120000      -2.07690000       0.05420000
C       -0.40680000      -2.83620000      -0.98580000
C       -0.94820000      -2.52940000       1.52510000
C       -2.23480000      -3.39770000       1.48480000
C       -2.68270000      -2.64510000       0.20300000
H        1.11180000       1.62230000      -0.53350000
H       -0.65340000       1.85170000      -0.58460000
H        0.22400000       2.02620000       0.95520000
H        0.57370000      -0.46710000       0.79530000
H        0.64940000      -2.54820000      -0.94100000
H       -0.46800000      -3.91670000      -0.81750000
H       -0.77390000      -2.62820000      -1.99580000
H       -0.00070000      -3.04890000       1.69890000
H       -1.02830000      -1.70270000       2.23690000
H       -2.01960000      -4.45370000       1.30300000
H       -2.89520000      -3.33050000       2.35180000
H       -3.40630000      -1.85120000       0.39590000
H       -3.05020000      -3.25040000      -0.62900000
