21
Properties=species:S:1:pos:R:3 pbc="F F F"
C       -0.27270000       1.56230000      -0.04250000
C        0.08240000       0.06690000       0.03690000
C        0.77180000      -0.45360000      -1.18960000
C        2.01430000      -0.94490000      -1.25850000
C        2.41990000      -1.39550000      -2.63750000
C        2.92980000      -2.83990000      -2.75520000
C        1.12710000      -1.17020000      -3.44720000
O        0.95240000      -1.50670000      -4.58920000
C        0.09810000      -0.47810000      -2.54280000
H        0.62610000       2.17070000      -0.18340000
H       -0.95210000       1.77020000      -0.87510000
H       -0.76520000       1.89190000       0.87720000
H        0.71970000      -0.11280000       0.91010000
H       -0.84210000      -0.50480000       0.20130000
H        2.68220000      -1.02560000      -0.40630000
H        3.18840000      -0.73020000      -3.06180000
H        2.21710000      -3.54370000      -2.31360000
H        3.06260000      -3.10220000      -3.80810000
H        3.88780000      -2.95990000      -2.24070000
H       -0.85380000      -1.02500000      -2.55670000
H       -0.12390000       0.52210000      -2.93880000
