21
Properties=species:S:1:pos:R:3 pbc="F F F"
C        0.04030000       1.55350000       0.23990000
C        0.11030000       0.04800000       0.05950000
C        0.85250000      -0.43990000      -1.20670000
C        1.56910000      -1.73060000      -0.73940000
C        1.19190000      -1.83460000       0.75770000
C        2.32390000      -2.33590000       1.66040000
C        1.92700000      -2.52780000       3.04960000
C        1.59250000      -2.70160000       4.19050000
O        0.83700000      -0.51820000       1.14550000
H        1.04760000       1.98150000       0.25520000
H       -0.52060000       2.01080000      -0.58120000
H       -0.45660000       1.80770000       1.18010000
H       -0.91190000      -0.36960000       0.05910000
H        0.16440000      -0.61220000      -2.03810000
H        1.57700000       0.31320000      -1.53030000
H        1.25510000      -2.61850000      -1.29400000
H        2.65370000      -1.63990000      -0.85370000
H        0.32060000      -2.50000000       0.87530000
H        2.69850000      -3.28290000       1.25120000
H        3.14920000      -1.61540000       1.60010000
H        1.29920000      -2.84470000       5.20070000
