23
Properties=species:S:1:pos:R:3 pbc="F F F"
C       -0.22100000       1.08370000      -1.69020000
C       -0.02840000      -0.16900000      -0.86290000
C        1.32740000      -0.65770000      -0.40580000
C        2.62210000       0.04910000      -0.74310000
C        0.33430000      -0.10690000       0.61350000
C        0.53820000       1.21820000       1.37290000
C        0.19280000       0.90520000       2.85930000
C       -0.39720000      -0.48380000       2.81040000
C       -0.30690000      -1.02100000       1.59460000
H        0.47530000       1.87990000      -1.41490000
H       -0.07880000       0.87620000      -2.75680000
H       -1.23460000       1.48110000      -1.56430000
H       -0.73250000      -0.95840000      -1.11980000
H        1.43270000      -1.74070000      -0.38130000
H        2.51230000       1.13580000      -0.78020000
H        3.39570000      -0.17610000      -0.00020000
H        2.99930000      -0.27410000      -1.72000000
H        1.55370000       1.60940000       1.27140000
H       -0.13570000       1.98850000       0.98440000
H        1.08440000       0.93080000       3.50040000
H       -0.50240000       1.64010000       3.28270000
H       -0.81550000      -0.97320000       3.68280000
H       -0.64070000      -2.01570000       1.31650000
