18
Properties=species:S:1:pos:R:3 pbc="F F F"
C        0.04890000       1.64240000      -0.14300000
C        1.57680000       1.41150000       0.00180000
C        1.27180000       0.02290000       0.64530000
C       -0.16390000       0.11610000       0.04080000
O        2.07090000      -1.06440000       0.19680000
C        2.62590000      -1.77700000       1.29890000
C        2.11930000      -1.05950000       2.51790000
C        1.35370000      -0.04210000       2.14220000
H       -0.36270000       2.22060000       0.68900000
H       -0.30230000       2.08620000      -1.07630000
H        2.06000000       1.26150000      -0.96720000
H        2.16200000       2.12460000       0.58800000
H       -0.99760000      -0.22680000       0.65890000
H       -0.18680000      -0.41050000      -0.91680000
H        2.30500000      -2.83010000       1.26520000
H        3.72540000      -1.77310000       1.23330000
H        2.36370000      -1.35740000       3.52950000
H        0.84340000       0.66310000       2.78630000
