18
Properties=species:S:1:pos:R:3 pbc="F F F"
C       -0.07920000       0.27460000       0.44470000
N        0.11100000      -0.65780000      -0.64840000
C        1.18830000      -0.59430000      -1.29670000
O        1.49170000      -1.38280000      -2.34730000
C        0.48540000      -2.30470000      -2.78390000
C        0.50760000      -3.61620000      -1.97250000
O       -0.52520000      -4.44640000      -2.42380000
C        1.84500000      -4.31510000      -2.09930000
O        1.92440000      -5.44640000      -2.51800000
H        0.77120000       0.95700000       0.59970000
H       -0.97510000       0.87790000       0.26100000
H       -0.25230000      -0.27850000       1.37440000
H        2.01630000       0.09810000      -1.10600000
H       -0.50620000      -1.85860000      -2.68840000
H        0.70370000      -2.50990000      -3.83450000
H        0.36870000      -3.34990000      -0.91180000
H       -0.09230000      -5.27180000      -2.69650000
H        2.73910000      -3.73870000      -1.79600000
