20
Properties=species:S:1:pos:R:3 pbc="F F F"
C       -0.01560000       1.55370000       0.04640000
C        0.03830000       0.05250000       0.01410000
C       -0.86450000      -0.81220000       0.84800000
C        0.62520000      -0.95150000       1.02400000
C        1.27920000      -1.75270000      -0.12220000
C        0.49020000      -2.92170000      -0.78920000
C       -0.11620000      -1.91460000      -1.82290000
C        0.67650000      -0.75330000      -1.14990000
H        0.94980000       1.99650000      -0.22570000
H       -0.76530000       1.94080000      -0.65550000
H       -0.28060000       1.91890000       1.04450000
H       -1.36240000      -0.28630000       1.65790000
H       -1.46910000      -1.60760000       0.42240000
H        1.09030000      -0.76190000       1.98560000
H        2.35850000      -1.87290000      -0.02500000
H        1.13870000      -3.67210000      -1.24830000
H       -0.22420000      -3.44100000      -0.14490000
H        0.19920000      -2.10990000      -2.85090000
H       -1.20510000      -1.81460000      -1.81770000
H        1.32220000      -0.15290000      -1.79290000
