14
Properties=species:S:1:pos:R:3 pbc="F F F"
N       -0.23140000       1.25580000       0.35180000
C       -0.15060000      -0.09880000       0.08850000
C       -1.07850000      -1.03220000      -0.27420000
O       -2.39140000      -0.74860000      -0.60940000
C       -3.33840000      -1.01340000       0.33530000
O       -4.49670000      -0.81830000       0.14120000
C       -0.40390000      -2.29700000      -0.32810000
C        0.88190000      -2.03940000       0.00770000
O        1.04610000      -0.69650000       0.26750000
H        0.60880000       1.76010000       0.09700000
H       -1.04870000       1.67620000      -0.07150000
H       -2.89390000      -1.41450000       1.26410000
H       -0.83160000      -3.25040000      -0.59460000
H        1.76780000      -2.64050000       0.11160000
