20
Properties=species:S:1:pos:R:3 pbc="F F F"
C       -0.10510000       1.63570000      -0.16070000
C       -0.12270000       0.10380000      -0.03940000
O        0.45360000      -0.29320000       1.21170000
C       -1.56750000      -0.44100000      -0.05960000
N       -2.23590000      -0.06700000       1.19520000
H       -2.96940000      -0.72670000       1.42460000
H       -0.25720000      -0.17780000       1.86490000
H       -2.67200000       0.84550000       1.12250000
C        0.71680000      -0.56280000      -1.13950000
C        2.19480000      -0.15930000      -1.18760000
O        2.81320000      -0.05670000       0.00300000
O        2.78670000       0.02130000      -2.21790000
H        0.91670000       2.01360000      -0.07460000
H       -0.51340000       1.96060000      -1.12330000
H       -0.69510000       2.09430000       0.63900000
H        2.16440000      -0.19900000       0.72010000
H       -2.08840000      -0.09650000      -0.96390000
H       -1.52050000      -1.53360000      -0.09900000
H        0.68380000      -1.64870000      -0.98570000
H        0.29780000      -0.35360000      -2.12580000
