15
Properties=species:S:1:pos:R:3 pbc="F F F"
O        0.82410000       1.43180000       1.53160000
C        0.22010000       1.64360000       0.50600000
C        0.77860000       1.20640000      -0.79280000
N        1.25330000       0.82640000      -1.77580000
C       -1.09580000       2.29760000       0.45090000
C       -1.90460000       2.77600000       1.66160000
C       -3.21080000       2.27660000       0.96070000
C       -2.37550000       1.80650000      -0.23950000
N       -1.57420000       2.85720000      -0.80960000
H       -1.66800000       2.21250000       2.56460000
H       -1.82520000       3.84490000       1.87910000
H       -3.68380000       1.45440000       1.50030000
H       -3.97090000       3.02730000       0.72410000
H       -2.51590000       0.90410000      -0.82330000
H       -1.96390000       3.79060000      -0.68770000
