21
Properties=species:S:1:pos:R:3 pbc="F F F"
C       -0.07320000       1.51430000       0.00480000
C        0.02430000      -0.01850000       0.00890000
C       -1.39920000      -0.55160000      -0.21060000
C        1.12500000      -0.62390000      -0.96120000
C        2.38860000      -0.03590000      -0.30640000
C        2.18890000      -0.04480000       1.01050000
C        0.78930000      -0.63940000       1.25330000
C        0.86460000      -2.10770000       0.79530000
C        1.06400000      -2.09850000      -0.52170000
H        0.88690000       2.00630000       0.15370000
H       -0.49180000       1.86140000      -0.94690000
H       -0.75560000       1.84920000       0.79460000
H       -1.79890000      -0.17550000      -1.15940000
H       -1.45310000      -1.63930000      -0.22620000
H       -2.06300000      -0.18740000       0.58200000
H        1.00560000      -0.43580000      -2.02940000
H        3.26800000       0.28100000      -0.85080000
H        2.86670000       0.26300000       1.79530000
H        0.35830000      -0.46560000       2.24050000
H        0.79830000      -2.95910000       1.45920000
H        1.19900000      -2.94060000      -1.18700000
