20
Properties=species:S:1:pos:R:3 pbc="F F F"
O        0.50860000       0.86810000      -0.91070000
C        0.09080000      -0.20740000      -0.10270000
C        0.18520000      -0.07110000       1.44110000
C       -1.27460000      -0.60010000       1.57590000
C       -2.29480000       0.38890000       2.15530000
C       -2.48050000       1.43980000       1.04260000
C       -2.41210000       0.61990000      -0.26460000
C       -1.43320000      -0.53640000       0.01430000
H        0.12090000       1.67630000      -0.55940000
H        0.65080000      -1.07140000      -0.47090000
H        0.96750000      -0.65790000       1.92880000
H        0.29730000       0.97030000       1.76450000
H       -1.33920000      -1.59280000       2.02450000
H       -3.24590000      -0.12610000       2.33850000
H       -1.97250000       0.82510000       3.10690000
H       -3.41220000       2.00430000       1.14020000
H       -1.66680000       2.17600000       1.08140000
H       -3.40130000       0.20730000      -0.49080000
H       -2.11210000       1.21600000      -1.13250000
H       -1.72960000      -1.45140000      -0.50300000
