22
Properties=species:S:1:pos:R:3 pbc="F F F"
C        0.75220000      -0.21780000      -0.70540000
O       -0.40380000       0.26840000      -0.04650000
C       -1.59020000      -0.55330000       0.01000000
C       -1.30340000      -2.05360000      -0.11340000
C       -2.16740000      -0.24050000       1.40690000
O       -1.26460000      -0.58220000       2.43850000
C       -2.58920000      -0.10040000      -1.05630000
C       -2.79780000       1.33620000      -1.35570000
N       -2.16060000       0.45110000      -2.35040000
H        1.47660000       0.60080000      -0.68380000
H        1.19060000      -1.08550000      -0.19760000
H        0.56890000      -0.49060000      -1.75320000
H       -0.65880000      -2.38990000       0.70150000
H       -2.24700000      -2.60170000      -0.03910000
H       -0.84960000      -2.31170000      -1.07310000
H       -2.43240000       0.82580000       1.44300000
H       -3.08020000      -0.82150000       1.57300000
H       -0.45390000      -0.10140000       2.23180000
H       -3.44690000      -0.76520000      -1.14350000
H       -3.78460000       1.70070000      -1.62590000
H       -2.16410000       2.05060000      -0.83890000
H       -1.15970000       0.62560000      -2.31820000
