20
Properties=species:S:1:pos:R:3 pbc="F F F"
C       -0.19030000       1.60410000       0.05170000
C        0.05360000       0.10520000       0.00540000
C        0.91210000      -0.58670000      -1.10170000
C        2.25020000       0.17960000      -1.05450000
C        2.39800000       0.17210000       0.48630000
O        3.28190000       0.61920000       1.16560000
C        1.12930000      -0.59170000       0.90020000
N        1.07770000      -1.69750000      -0.10550000
C        2.17390000      -2.65190000      -0.20690000
H        0.72820000       2.19580000       0.00840000
H       -0.82910000       1.91520000      -0.78190000
H       -0.70680000       1.87450000       0.97850000
H       -0.87980000      -0.45070000       0.11510000
H        0.49870000      -0.84860000      -2.07680000
H        3.07500000      -0.34620000      -1.54270000
H        2.21950000       1.19650000      -1.45430000
H        0.99330000      -0.82400000       1.95600000
H        2.15290000      -3.29880000       0.67580000
H        2.00770000      -3.28310000      -1.08580000
H        3.18490000      -2.22160000      -0.28080000
