18
Properties=species:S:1:pos:R:3 pbc="F F F"
O        0.15390000       1.36550000      -0.17200000
C        0.13290000      -0.02340000       0.08850000
C       -1.28920000      -0.58470000       0.05790000
C       -2.09710000      -0.54350000      -1.28860000
N       -2.39300000      -2.01640000      -1.24250000
C       -1.08210000      -2.67700000      -1.30540000
C       -1.49890000      -2.10440000      -0.01070000
C       -2.14610000       0.02530000       1.14020000
O       -1.81260000       0.95230000       1.84140000
H       -0.29370000       1.77730000       0.57830000
H        0.73870000      -0.49720000      -0.68940000
H        0.59620000      -0.26590000       1.05770000
H       -3.02350000       0.03240000      -1.24570000
H       -1.51730000      -0.22140000      -2.15850000
H       -1.15740000      -3.75550000      -1.40440000
H       -0.28560000      -2.22270000      -1.88990000
H       -1.76210000      -2.73090000       0.83650000
H       -3.15420000      -0.43330000       1.24890000
