17
Properties=species:S:1:pos:R:3 pbc="F F F"
N       -0.11720000      -1.12130000      -0.07140000
C       -0.06120000       0.03280000      -0.02060000
C        0.02230000       1.47130000      -0.00740000
N        0.62090000       2.09020000       1.20510000
C        1.34250000       2.17690000      -0.04780000
C        2.77040000       1.62460000      -0.21070000
C        3.12530000       2.91250000      -0.97600000
C        2.23050000       3.07400000      -2.16790000
C        1.69180000       3.43810000      -0.80630000
H       -0.81890000       1.97040000      -0.48110000
H        0.13180000       2.95970000       1.40970000
H        3.26160000       1.54170000       0.76080000
H        2.88430000       0.68390000      -0.75720000
H        4.05210000       3.46140000      -0.87200000
H        2.45230000       3.91940000      -2.81140000
H        1.84750000       2.20200000      -2.69260000
H        1.34160000       4.43460000      -0.56220000
