21
Properties=species:S:1:pos:R:3 pbc="F F F"
O        0.22420000       1.05670000      -0.67150000
C       -0.06180000      -0.30250000      -0.42040000
C       -1.49610000      -0.49370000       0.09490000
O       -1.49290000       0.30420000       1.28820000
C       -2.57170000      -0.01210000      -0.92420000
C       -3.21470000      -1.25510000      -1.51530000
C       -2.32610000      -2.29810000      -2.14620000
C       -2.76620000      -2.46000000      -0.71200000
C       -1.83010000      -1.98650000       0.38740000
H       -0.06600000       1.52490000       0.12140000
H        0.09200000      -0.84160000      -1.35870000
H        0.62640000      -0.72700000       0.32830000
H       -2.40190000       0.40960000       1.58550000
H       -3.33450000       0.56920000      -0.38970000
H       -2.12770000       0.66160000      -1.66290000
H       -4.23300000      -1.17390000      -1.87890000
H       -2.78640000      -2.95530000      -2.87620000
H       -1.29120000      -2.06080000      -2.36890000
H       -3.45290000      -3.26700000      -0.48170000
H       -0.91970000      -2.59180000       0.47410000
H       -2.33310000      -2.04140000       1.35960000
