18
Properties=species:S:1:pos:R:3 pbc="F F F"
C       -1.55430000       0.29300000       0.61580000
C       -0.08500000       0.23260000       0.17090000
N        0.72470000      -0.34630000       1.24330000
C        2.17040000      -0.41810000       1.00530000
C        2.90830000       0.93030000       0.86510000
C        2.76830000      -1.20200000       2.09850000
N        3.25320000      -1.78310000       2.97090000
C        0.05210000      -0.58960000      -1.04490000
N        0.16910000      -1.21150000      -2.01150000
H       -1.64660000       0.94890000       1.48690000
H       -2.18100000       0.69390000      -0.18340000
H       -1.90780000      -0.70420000       0.88550000
H        0.23070000       1.25130000      -0.11440000
H        0.53490000       0.14960000       2.10840000
H        2.31230000      -0.99490000       0.08260000
H        2.78330000       1.53550000       1.76790000
H        3.97760000       0.76640000       0.70790000
H        2.52360000       1.48890000       0.00800000
