16
Properties=species:S:1:pos:R:3 pbc="F F F"
O       -0.18010000       1.43030000       0.06860000
C       -0.02810000       0.08030000       0.02140000
C       -1.05260000      -1.01150000      -0.06020000
C       -0.41840000      -1.61860000      -1.30210000
C        0.90890000      -0.91420000      -0.85640000
N        1.30800000      -1.56010000       0.43590000
C        0.08880000      -1.01570000       1.02560000
C        1.93360000      -0.57490000      -1.79620000
C        2.77600000      -0.26430000      -2.59710000
H        0.60010000       1.81280000       0.48840000
H       -2.09600000      -0.96320000       0.22140000
H       -0.36940000      -2.70900000      -1.40430000
H       -0.81250000      -1.17340000      -2.21800000
H        1.31990000      -2.57960000       0.36250000
H       -0.11930000      -1.02340000       2.08750000
H        3.52470000       0.00300000      -3.30110000
