16
Properties=species:S:1:pos:R:3 pbc="F F F"
C       -0.28440000       1.53660000      -0.03980000
C        0.10730000       0.07070000      -0.00630000
N        0.78630000      -0.52960000      -1.21960000
C        2.10580000       0.07380000      -1.29200000
C        1.93050000      -1.05780000      -0.31800000
C        2.56520000      -2.32210000      -0.43320000
C        3.11060000      -3.39260000      -0.48600000
C        1.22970000      -0.48310000       0.89920000
O        1.38140000      -0.59470000       2.07770000
H        0.56420000       2.19910000      -0.22760000
H       -1.03620000       1.71190000      -0.81540000
H       -0.71750000       1.81710000       0.92490000
H       -0.77900000      -0.54420000       0.19290000
H        2.65220000      -0.17300000      -2.19670000
H        2.27740000       1.07910000      -0.91630000
H        3.58510000      -4.34140000      -0.53600000
