20
Properties=species:S:1:pos:R:3 pbc="F F F"
C        0.00540000       1.57380000       0.07880000
C       -0.03620000       0.04510000       0.03650000
C        0.72370000      -0.53410000      -1.14690000
O        2.12220000      -0.26260000      -1.03710000
C        2.78810000      -1.31350000      -1.68380000
C        4.14900000      -1.54830000      -1.07460000
O        1.95120000      -2.47440000      -1.51390000
C        0.68640000      -2.04910000      -1.24290000
N       -0.33380000      -2.77370000      -1.09220000
H        1.03600000       1.93490000       0.13960000
H       -0.45030000       2.00760000      -0.81830000
H       -0.54010000       1.95430000       0.94720000
H        0.38900000      -0.37610000       0.95420000
H       -1.06560000      -0.32090000      -0.03320000
H        0.33350000      -0.11040000      -2.08870000
H        2.85660000      -1.12170000      -2.76840000
H        4.04410000      -1.76420000      -0.00880000
H        4.64240000      -2.38880000      -1.56850000
H        4.76490000      -0.65420000      -1.20030000
H       -0.10570000      -3.76080000      -1.21860000
