21
Properties=species:S:1:pos:R:3 pbc="F F F"
C        0.04790000       1.58130000       0.16460000
C       -0.18170000       0.08150000      -0.05340000
C        0.58260000      -0.46780000      -1.25270000
C        2.10580000      -0.72190000      -1.12870000
C        1.89710000      -2.10240000      -0.43320000
O        2.76280000      -2.83590000      -1.34500000
C        2.06530000      -1.86850000      -2.19780000
C        2.36130000      -1.84620000      -3.66240000
C        0.70340000      -1.99930000      -1.43220000
H        1.10570000       1.79860000       0.34810000
H       -0.25980000       2.15910000      -0.71420000
H       -0.52210000       1.95180000       1.02220000
H        0.10380000      -0.46950000       0.85200000
H       -1.25410000      -0.10570000      -0.19730000
H        0.29470000       0.06820000      -2.16640000
H        2.92810000      -0.02500000      -0.96010000
H        1.91330000      -2.37150000       0.62160000
H        2.12590000      -2.81400000      -4.11590000
H        1.76430000      -1.07550000      -4.16010000
H        3.42010000      -1.63140000      -3.83670000
H       -0.07010000      -2.74940000      -1.60510000
