10
Properties=species:S:1:pos:R:3 pbc="F F F"
N       -0.00280000       1.40600000       0.16620000
C       -0.06290000       0.01980000       0.05110000
C       -1.14950000      -0.82980000       0.03940000
N       -0.57800000      -2.06420000      -0.01900000
N        0.75460000      -1.99840000      -0.03450000
N        1.07410000      -0.73050000       0.00260000
H        0.92400000       1.74400000      -0.06010000
H       -0.70010000       1.89380000      -0.37900000
H       -2.21350000      -0.67540000       0.07160000
H       -1.02790000      -2.96480000      -0.04790000
