19
Properties=species:S:1:pos:R:3 pbc="F F F"
O        0.13220000       1.37760000      -0.27230000
C        0.01550000       0.01430000       0.09250000
C        0.34480000      -0.28470000       1.56500000
O       -0.29040000      -1.52120000       1.82610000
C       -1.56780000      -1.48510000       1.16260000
C       -2.65580000      -0.89620000       2.02490000
C       -3.15880000       0.22350000       1.51020000
C       -2.53340000       0.59780000       0.19100000
C       -1.44450000      -0.48640000      -0.03370000
H        1.06210000       1.62030000      -0.22850000
H        0.65700000      -0.60930000      -0.54650000
H        1.41330000      -0.40620000       1.76780000
H       -0.04590000       0.53040000       2.19530000
H       -1.77590000      -2.51920000       0.86870000
H       -2.94760000      -1.35640000       2.96200000
H       -3.94280000       0.82120000       1.96460000
H       -3.27410000       0.58570000      -0.61810000
H       -2.11040000       1.60690000       0.20150000
H       -1.58870000      -0.98450000      -0.99310000
