15
Properties=species:S:1:pos:R:3 pbc="F F F"
N       -0.03260000       1.33470000       0.09380000
C       -0.07550000      -0.01200000       0.02270000
N       -1.12120000      -0.75210000      -0.00940000
C       -0.67420000      -2.13760000      -0.02420000
C        0.85200000      -2.10580000      -0.00160000
N        1.74730000      -2.99910000      -0.00210000
N        1.16180000      -0.72390000       0.02000000
C        2.44230000      -0.21030000      -0.01840000
O        2.70680000       0.97370000      -0.05220000
H        0.85680000       1.79120000      -0.04580000
H       -0.89780000       1.82700000      -0.04580000
H       -1.05670000      -2.69260000       0.84260000
H       -1.03000000      -2.66610000      -0.91850000
H        1.33220000      -3.92930000      -0.02200000
H        3.19460000      -1.01160000      -0.01900000
