15
Properties=species:S:1:pos:R:3 pbc="F F F"
C        0.02920000       1.44720000       0.01410000
C       -0.03900000      -0.04770000      -0.02480000
O        0.89170000      -0.63850000      -0.92380000
C        0.46050000      -1.89710000      -1.25910000
O        0.99280000      -2.58240000      -2.07750000
C       -0.70540000      -2.19770000      -0.31460000
O       -0.05110000      -2.23850000       0.99980000
C       -0.40780000      -0.87740000       1.20000000
C       -1.32800000      -0.82590000      -0.00530000
H        1.02420000       1.78090000       0.32220000
H       -0.18920000       1.87110000      -0.97060000
H       -0.70100000       1.83960000       0.72810000
H       -1.29110000      -3.08750000      -0.52850000
H       -0.47280000      -0.50790000       2.21690000
H       -2.33080000      -0.46270000      -0.18380000
