20
Properties=species:S:1:pos:R:3 pbc="F F F"
C       -0.13450000       1.50900000       0.03890000
C        0.00120000       0.02010000      -0.01730000
C       -0.04170000      -0.76140000      -1.09820000
C        0.08660000      -2.22700000      -0.77040000
C        0.51980000      -2.22850000       0.72340000
C        2.01580000      -2.50070000       0.86580000
O        2.28540000      -3.80750000       0.37780000
C        0.17500000      -0.80630000       1.24160000
H        0.74920000       1.97320000       0.49580000
H       -0.26900000       1.94150000      -0.95640000
H       -0.99220000       1.80640000       0.65670000
H       -0.18400000      -0.39900000      -2.11170000
H       -0.87020000      -2.74790000      -0.91390000
H        0.81440000      -2.75630000      -1.39480000
H       -0.00790000      -3.00310000       1.28700000
H        2.57860000      -1.73930000       0.30070000
H        2.30540000      -2.40840000       1.92500000
H        3.23750000      -3.93990000       0.38070000
H        0.95790000      -0.40270000       1.89930000
H       -0.74740000      -0.79970000       1.83940000
