19
Properties=species:S:1:pos:R:3 pbc="F F F"
C       -0.04220000       1.44950000      -0.13310000
C        1.29550000       0.77830000       0.01700000
C       -0.00370000      -0.04230000       0.02720000
C        0.43300000      -0.76680000      -1.26700000
C        1.75500000       0.06470000      -1.27670000
C        1.38040000       0.68490000      -2.65780000
C        0.07520000      -0.13870000      -2.62490000
C       -0.68070000      -0.70630000      -3.74320000
O       -1.20230000       0.37620000      -2.96190000
H       -0.37060000       1.98410000       0.75320000
H       -0.36450000       1.91230000      -1.05980000
H        1.95480000       1.02190000       0.84170000
H       -0.49700000      -0.53540000       0.85580000
H        0.44400000      -1.85540000      -1.20550000
H        2.72000000      -0.43450000      -1.20410000
H        1.24590000       1.76920000      -2.68360000
H        2.05610000       0.39610000      -3.46780000
H       -0.40470000      -0.45330000      -4.76690000
H       -1.19650000      -1.65890000      -3.62340000
