13
Properties=species:S:1:pos:R:3 pbc="F F F"
O        0.00190000       0.01040000       0.04410000
C       -0.03150000       1.20440000       0.02080000
C       -1.25080000       2.14890000       0.02300000
C       -0.50890000       3.49410000       0.03400000
O        0.59880000       3.25950000      -0.81360000
C        1.16450000       2.19750000      -0.02810000
C        1.18070000       2.85830000       1.36310000
O        1.90800000       2.71840000       2.29390000
O        0.08510000       3.68420000       1.34030000
H       -1.83500000       2.02660000      -0.89290000
H       -1.89380000       1.97720000       0.88780000
H       -1.04900000       4.39340000      -0.25010000
H        2.11080000       1.83040000      -0.40970000
