17
Properties=species:S:1:pos:R:3 pbc="F F F"
O       -0.06560000       1.36410000       0.02390000
C       -0.01300000      -0.02520000      -0.04870000
C        0.65000000      -0.73510000      -1.25930000
C        0.67930000      -2.07610000      -0.51110000
O        1.60270000      -1.71720000       0.53080000
C        0.70120000      -0.83670000       1.17980000
O       -0.29610000      -1.73460000       1.62880000
C       -0.73650000      -2.08350000       0.30670000
C       -1.37740000      -0.74160000      -0.08110000
H        0.82400000       1.71130000      -0.10090000
H        0.03200000      -0.68610000      -2.15760000
H        1.66840000      -0.41390000      -1.48720000
H        0.98460000      -2.98870000      -1.01700000
H        1.16220000      -0.27740000       1.99100000
H       -1.32230000      -2.99920000       0.30940000
H       -2.07620000      -0.41840000       0.69050000
H       -1.85070000      -0.69180000      -1.06340000
