19
Properties=species:S:1:pos:R:3 pbc="F F F"
C        0.11190000       1.36300000      -0.00010000
O        0.00370000      -0.04960000       0.00590000
C       -1.32660000      -0.56940000       0.01470000
C       -1.14850000      -2.10000000       0.01580000
C       -2.04890000      -0.14930000       1.23410000
C       -2.61730000       0.17320000       2.24250000
C       -2.08310000      -0.14450000      -1.17870000
C       -2.68670000       0.18140000      -2.16810000
C       -3.42260000       0.57720000      -3.36000000
H        1.18100000       1.58560000      -0.01310000
H       -0.36040000       1.80000000      -0.88930000
H       -0.33920000       1.80670000       0.89680000
H       -0.57730000      -2.39280000       0.89920000
H       -2.12100000      -2.59500000       0.02930000
H       -0.60240000      -2.39280000      -0.88330000
H       -3.12630000       0.46280000       3.12870000
H       -4.12960000      -0.20260000      -3.66350000
H       -3.99320000       1.49640000      -3.18900000
H       -2.74500000       0.75580000      -4.20190000
