18
Properties=species:S:1:pos:R:3 pbc="F F F"
C       -0.28710000       1.45350000       0.00280000
N        0.03300000       0.03320000       0.09100000
C        1.36710000      -0.43490000      -0.27400000
C        2.41960000       0.45990000      -0.66310000
C        3.29830000       1.19760000      -1.02590000
C        0.88770000      -0.44920000       1.18040000
C        1.50830000       0.44920000       2.22530000
C        0.44970000      -1.80270000       1.66320000
O        0.73010000      -2.26880000       2.73770000
H        0.55370000       2.12810000       0.20480000
H       -0.65400000       1.65730000      -1.00720000
H       -1.09390000       1.67000000       0.70850000
H        1.36240000      -1.37700000      -0.82070000
H        4.07920000       1.84280000      -1.34580000
H        2.14060000       1.22130000       1.78630000
H        0.73270000       0.92770000       2.83200000
H        2.11380000      -0.16460000       2.89610000
H       -0.16970000      -2.35140000       0.92010000
