16
Properties=species:S:1:pos:R:3 pbc="F F F"
C       -0.00240000       1.50980000       0.01180000
N       -0.00940000       0.04740000      -0.02740000
C       -0.01680000      -0.67110000       1.17300000
N       -0.01770000      -0.08340000       2.29800000
C       -0.00840000      -0.65450000      -1.21670000
O       -0.01390000      -1.87350000      -1.27270000
C       -0.00020000       0.14860000      -2.51710000
O        0.00030000      -0.71700000      -3.61000000
H        0.89360000       1.91160000      -0.46920000
H       -0.88860000       1.92030000      -0.47990000
H       -0.00720000       1.80160000       1.06060000
H       -0.02130000      -1.74530000       0.99230000
H       -0.02350000      -0.76750000       3.05150000
H       -0.87980000       0.81200000      -2.53650000
H        0.88500000       0.80460000      -2.52990000
H       -0.00540000      -1.60840000      -3.22280000
