23
Properties=species:S:1:pos:R:3 pbc="F F F"
C        0.02210000       1.50960000       0.19650000
C       -0.07020000      -0.00950000       0.04480000
O       -1.42700000      -0.45210000       0.05530000
C        0.66260000      -0.52270000      -1.18850000
C        2.21790000      -0.46110000      -1.22130000
C        2.22350000      -1.86840000      -1.87880000
C        3.26880000      -2.86410000      -1.42360000
O        3.00480000      -4.10250000      -2.06800000
C        0.75640000      -2.05740000      -1.40540000
H        1.06310000       1.83930000       0.27830000
H       -0.41870000       2.01270000      -0.67360000
H       -0.51790000       1.83700000       1.08910000
H        0.37150000      -0.48410000       0.93130000
H       -1.86370000      -0.06640000      -0.71240000
H        0.24760000      -0.03270000      -2.08030000
H        2.68990000       0.36030000      -1.76560000
H        2.63640000      -0.49000000      -0.20780000
H        2.26750000      -1.78690000      -2.97000000
H        4.27580000      -2.48870000      -1.67390000
H        3.22240000      -2.96800000      -0.32630000
H        3.64110000      -4.74980000      -1.75090000
H        0.70610000      -2.59650000      -0.45320000
H        0.05350000      -2.52120000      -2.09900000
