20
Properties=species:S:1:pos:R:3 pbc="F F F"
C        0.16010000       1.66230000       0.08210000
C        0.07730000       0.15110000       0.04120000
C        1.24100000      -0.73250000      -0.35710000
C        2.61480000      -0.16230000      -0.67610000
C        3.35390000       0.41160000       0.50130000
C        2.90820000       0.40200000       1.75540000
C        1.59470000      -0.18410000       2.19450000
C        0.73300000      -0.74340000       1.07250000
H        1.13260000       2.01740000       0.43040000
H       -0.01310000       2.08880000      -0.91270000
H       -0.60400000       2.07620000       0.75010000
H       -0.88920000      -0.20910000      -0.30490000
H        0.97880000      -1.59510000      -0.96260000
H        3.23270000      -0.95850000      -1.11490000
H        2.54040000       0.60110000      -1.46530000
H        4.32470000       0.85140000       0.28290000
H        3.52150000       0.83420000       2.54320000
H        1.80100000      -0.98910000       2.91410000
H        1.03540000       0.56900000       2.77010000
H        0.15160000      -1.61270000       1.36510000
