17
Properties=species:S:1:pos:R:3 pbc="F F F"
C        0.13260000       1.34520000      -0.03230000
C       -0.07720000      -0.14880000      -0.06480000
O        0.82610000      -0.93430000      -0.25640000
C       -1.49020000      -0.70610000       0.15220000
O       -1.48340000      -2.09870000       0.02180000
C       -2.04470000      -0.31760000       1.53280000
O       -3.39340000      -0.75320000       1.66000000
C       -3.60590000      -1.99830000       2.15210000
O       -4.69890000      -2.46750000       2.23270000
H        1.09650000       1.59050000      -0.47970000
H       -0.67310000       1.87420000      -0.55000000
H        0.13370000       1.69360000       1.00780000
H       -2.15020000      -0.25710000      -0.60810000
H       -0.55250000      -2.33610000      -0.12940000
H       -1.41760000      -0.76430000       2.31520000
H       -2.06310000       0.76680000       1.66790000
H       -2.67500000      -2.49660000       2.47310000
