18
Properties=species:S:1:pos:R:3 pbc="F F F"
C        0.02830000       1.42520000       0.24710000
N       -0.08390000      -0.01890000       0.21140000
C       -1.25750000      -0.62900000      -0.10790000
N       -2.28190000       0.03380000      -0.48720000
C       -1.14720000      -2.17710000      -0.04140000
C       -0.60170000      -2.71640000      -1.37260000
O       -0.23190000      -2.60510000       0.96590000
C       -2.48210000      -2.75210000       0.23010000
N       -3.51190000      -3.21920000       0.46790000
H        1.06670000       1.69390000       0.45180000
H       -0.27010000       1.84690000      -0.71630000
H       -0.61870000       1.86880000       1.01410000
H        0.60430000      -0.58440000       0.67890000
H       -3.06540000      -0.57910000      -0.70360000
H        0.38970000      -2.29070000      -1.54050000
H       -0.52640000      -3.80480000      -1.33050000
H       -1.25760000      -2.42600000      -2.19510000
H       -0.61970000      -2.41990000       1.83000000
