25
Properties=species:S:1:pos:R:3 pbc="F F F"
C       -0.10430000       1.49050000      -0.23870000
C        0.14750000       0.00140000      -0.15560000
C        1.56350000      -0.54790000      -0.09170000
C        0.64940000      -0.64540000       1.10870000
O        0.90970000       0.28040000       2.14310000
C        0.09150000      -1.98380000       1.63480000
C        1.10080000      -2.58000000       2.63900000
C       -1.24230000      -1.70020000       2.35400000
C       -0.14430000      -3.01510000       0.51750000
H        0.57200000       2.03730000       0.42100000
H        0.03870000       1.85200000      -1.26300000
H       -1.12910000       1.73520000       0.06170000
H       -0.54480000      -0.59780000      -0.73970000
H        1.80810000      -1.43410000      -0.66610000
H        2.36670000       0.17940000      -0.02160000
H        1.75160000       0.04340000       2.54450000
H        1.23740000      -1.92590000       3.50560000
H        0.74660000      -3.54580000       3.01360000
H        2.07800000      -2.74280000       2.16990000
H       -1.99920000      -1.34430000       1.64690000
H       -1.62850000      -2.60700000       2.83210000
H       -1.11020000      -0.93290000       3.12060000
H        0.78470000      -3.29020000       0.00930000
H       -0.56350000      -3.93030000       0.94840000
H       -0.85510000      -2.65880000      -0.23370000
