17
Properties=species:S:1:pos:R:3 pbc="F F F"
C        0.16000000       1.38180000      -0.12090000
N       -0.15440000       0.00980000       0.28520000
C        0.75320000      -0.50410000       1.28830000
C        0.60760000      -2.02660000       1.58090000
O        1.98790000      -2.23960000       1.10960000
C        2.12620000      -0.90970000       0.77630000
N        3.07530000      -0.29980000       0.23180000
C        0.39850000      -2.45160000       2.94680000
C        0.20400000      -2.78980000       4.08320000
H        1.15720000       1.40190000      -0.56610000
H       -0.56470000       1.70470000      -0.87310000
H        0.14580000       2.10540000       0.71220000
H       -1.09890000      -0.02260000       0.65770000
H        0.81870000       0.09740000       2.20980000
H       -0.08740000      -2.51140000       0.88950000
H        3.84620000      -0.93040000       0.00370000
H        0.03620000      -3.09630000       5.08660000
