25
Properties=species:S:1:pos:R:3 pbc="F F F"
C       -0.17240000       1.58750000      -0.08190000
C       -0.03890000       0.06600000       0.06180000
C        0.81140000      -0.45350000       1.25300000
C        2.24230000       0.11670000       1.18600000
C        0.15530000      -0.02590000       2.58210000
C        0.80800000      -2.02340000       1.18730000
C        1.62000000      -2.63660000       0.02870000
C        1.31820000      -2.65590000       2.46960000
O        0.67370000      -3.37850000       3.18650000
H        0.79480000       2.07290000      -0.24350000
H       -0.80200000       1.82510000      -0.94510000
H       -0.63680000       2.04940000       0.79430000
H       -1.04320000      -0.36870000       0.14880000
H        0.37980000      -0.32500000      -0.87240000
H        2.23340000       1.19890000       1.34360000
H        2.88790000      -0.31160000       1.95920000
H        2.71250000      -0.07100000       0.21570000
H       -0.85040000      -0.44830000       2.68170000
H        0.73830000      -0.36130000       3.44600000
H        0.07480000       1.06210000       2.65230000
H       -0.23620000      -2.34460000       1.09860000
H        1.45270000      -3.71700000      -0.01870000
H        1.33060000      -2.21550000      -0.93690000
H        2.69480000      -2.47340000       0.15710000
H        2.38610000      -2.43440000       2.70630000
