17
Properties=species:S:1:pos:R:3 pbc="F F F"
C       -0.07550000       1.61190000       0.07360000
C        1.44620000       1.38390000       0.01420000
O        1.25580000       0.13450000       0.76320000
C       -0.01130000       0.07420000       0.02220000
C        0.53120000      -0.23990000      -1.38880000
O       -0.31460000       0.16230000      -2.45550000
C        0.48130000       0.97160000      -3.29530000
O        1.37590000       1.68130000      -2.46480000
C        1.69220000       0.80330000      -1.39520000
H       -0.38660000       1.96410000       1.05690000
H       -0.56740000       2.15440000      -0.73280000
H        2.18260000       2.06150000       0.44340000
H       -0.76090000      -0.58340000       0.45950000
H        0.84600000      -1.28220000      -1.49520000
H        1.03830000       0.34740000      -4.01690000
H       -0.15970000       1.68190000      -3.82460000
H        2.69440000       0.37870000      -1.50530000
