15
Properties=species:S:1:pos:R:3 pbc="F F F"
N       -0.13570000       1.52160000       0.09030000
C       -0.06600000       0.11770000      -0.06360000
C       -1.18330000      -0.91320000      -0.10970000
N       -0.47160000      -1.65030000      -1.15210000
C        0.62710000      -0.75450000      -1.12020000
O        1.65620000      -0.72910000      -1.72830000
C       -0.36250000      -0.79560000       1.15450000
C        0.51530000      -1.83400000       1.60960000
C        1.24140000      -2.71690000       1.98340000
H        0.71760000       1.88420000       0.50420000
H       -0.25840000       1.98170000      -0.80640000
H       -2.25210000      -0.75460000      -0.15780000
H       -0.32310000      -2.65200000      -1.09110000
H       -0.85110000      -0.21740000       1.93630000
H        1.89210000      -3.48690000       2.31740000
