17
Properties=species:S:1:pos:R:3 pbc="F F F"
C        0.00010000       1.51770000      -0.02210000
C        0.01650000       0.06250000      -0.01180000
C        0.02100000      -1.14180000       0.00380000
C        0.05480000      -2.58620000      -0.00440000
C       -0.04280000      -3.35240000       1.35300000
O       -1.45950000      -2.96340000       1.46920000
C       -1.29500000      -3.37480000       0.06080000
C       -0.54340000      -4.61770000       0.58260000
O        0.27220000      -5.29990000      -0.32440000
H        1.01590000       1.92880000      -0.01670000
H       -0.50670000       1.90340000      -0.91380000
H       -0.52380000       1.91550000       0.85410000
H        0.78400000      -2.99680000      -0.70630000
H        0.58290000      -3.25600000       2.24080000
H       -2.16190000      -3.30330000      -0.59550000
H       -1.16890000      -5.27020000       1.19990000
H        0.74620000      -5.99030000       0.14940000
