18
Properties=species:S:1:pos:R:3 pbc="F F F"
C       -0.10840000       1.59590000      -0.00440000
C        0.09620000       0.07720000       0.03490000
C        0.77020000      -0.50370000      -1.22030000
C        2.17500000       0.04610000      -1.47180000
C        0.61560000      -2.03540000      -1.38600000
O       -0.24230000      -1.83890000      -2.55660000
C       -0.13480000      -0.47470000      -2.46430000
O       -0.63230000       0.34250000      -3.17250000
H        0.84340000       2.13530000       0.00480000
H       -0.65560000       1.89220000      -0.90370000
H       -0.68000000       1.92480000       0.86830000
H        0.70200000      -0.19930000       0.90800000
H       -0.87620000      -0.41330000       0.16700000
H        2.81420000      -0.11810000      -0.59750000
H        2.64380000      -0.43970000      -2.33300000
H        2.14320000       1.11940000      -1.67430000
H        1.51840000      -2.58620000      -1.65940000
H        0.07170000      -2.55540000      -0.59420000
