20
Properties=species:S:1:pos:R:3 pbc="F F F"
C        0.00980000       1.50170000       0.14600000
C       -0.20870000       0.00680000       0.30040000
O        0.89570000      -0.53160000       1.01790000
C        0.83850000      -1.91600000       1.19330000
C        2.04470000      -2.49970000       1.98260000
C        1.06550000      -3.28760000       2.90900000
C       -0.06540000      -2.49620000       2.28370000
N       -1.27740000      -2.25230000       2.55450000
O       -1.69280000      -2.95090000       3.70390000
H        0.94040000       1.70230000      -0.39280000
H       -0.81840000       1.95100000      -0.41010000
H        0.07070000       1.98340000       1.12610000
H       -1.14240000      -0.20220000       0.83960000
H       -0.28110000      -0.48020000      -0.68690000
H        0.67600000      -2.42620000       0.22850000
H        2.76360000      -3.08360000       1.40680000
H        2.56510000      -1.69880000       2.51080000
H        1.00710000      -4.35970000       2.69710000
H        1.18760000      -3.16030000       3.98720000
H       -2.60650000      -2.66090000       3.79870000
