15
Properties=species:S:1:pos:R:3 pbc="F F F"
N        0.03780000       1.30340000       0.06040000
C       -0.04230000      -0.06250000       0.02160000
N       -1.13510000      -0.78410000      -0.03200000
C       -0.62170000      -2.05070000       0.09450000
C        0.71000000      -2.06180000       0.23380000
C        1.26790000      -3.42590000       0.04310000
C       -0.10200000      -4.19450000       0.19590000
O       -1.21000000      -3.26230000      -0.02340000
O        1.13100000      -0.73810000       0.14750000
H        0.88890000       1.69240000      -0.31810000
H       -0.80220000       1.75740000      -0.26590000
H        1.72500000      -3.58430000      -0.94470000
H        1.98130000      -3.77510000       0.79720000
H       -0.22010000      -5.01280000      -0.51550000
H       -0.19890000      -4.58170000       1.21500000
