16
Properties=species:S:1:pos:R:3 pbc="F F F"
N       -0.03010000       1.47950000       0.04080000
C        1.47380000       1.45340000      -0.00250000
C        1.98120000       1.25850000       1.39610000
C        1.52420000       0.14590000       1.99380000
C        0.80470000      -0.79260000       1.07020000
N        1.74040000      -1.16310000      -0.04850000
C        1.32190000       0.02640000      -0.76500000
C       -0.03740000       0.03200000      -0.04860000
H       -0.40310000       1.87220000       0.90500000
H        1.92050000       2.28540000      -0.54920000
H        2.60650000       1.99970000       1.88270000
H        1.70520000      -0.10660000       3.03330000
H        0.32410000      -1.64510000       1.55280000
H        2.71980000      -1.18820000       0.23500000
H        1.48340000       0.05840000      -1.84310000
H       -0.95030000      -0.45540000      -0.39270000
