15
Properties=species:S:1:pos:R:3 pbc="F F F"
C       -0.03310000       1.38570000      -0.11320000
N        0.09320000      -0.05150000       0.02170000
C        0.56460000      -0.63670000       1.15790000
O        0.92060000      -0.02980000       2.15530000
C        0.62550000      -2.11150000       1.11900000
C        1.02790000      -3.03150000       2.03310000
N        0.88710000      -4.30360000       1.50150000
C        0.41560000      -4.09960000       0.31430000
O        0.22510000      -2.80000000      -0.00380000
H        0.58480000       1.76370000      -0.93520000
H       -1.07350000       1.67820000      -0.29310000
H        0.30610000       1.83200000       0.82220000
H       -0.17370000      -0.64710000      -0.74500000
H        1.40490000      -2.85690000       3.02700000
H        0.16000000      -4.82670000      -0.44060000
