17
Properties=species:S:1:pos:R:3 pbc="F F F"
O       -0.00520000       1.41280000      -0.10040000
C        0.07440000       0.00160000      -0.01910000
C        0.70240000      -0.45410000       1.30290000
N        0.69740000      -1.90310000       1.37470000
C       -0.39040000      -2.67880000       1.04860000
N       -0.47810000      -3.89690000       1.41930000
C       -1.45680000      -2.02150000       0.16690000
O       -2.36450000      -2.69350000      -0.26080000
C       -1.35250000      -0.53220000      -0.10550000
H        0.88440000       1.76340000      -0.21170000
H        0.67030000      -0.41130000      -0.84770000
H        1.74090000      -0.11110000       1.36190000
H        0.15200000       0.02340000       2.12970000
H        1.33070000      -2.34630000       2.02430000
H       -1.32720000      -4.29070000       1.00880000
H       -1.94640000      -0.02050000       0.66650000
H       -1.82060000      -0.30830000      -1.06670000
