20
Properties=species:S:1:pos:R:3 pbc="F F F"
C       -0.81190000       0.86530000      -0.08680000
O       -0.30670000      -0.45560000      -0.09740000
C        0.62870000      -0.69070000      -1.13780000
C        1.00460000      -2.17280000      -1.18470000
C        1.57710000      -2.71390000       0.13600000
O        0.73970000      -2.59640000       1.26970000
O       -0.03720000      -2.95400000      -1.77360000
C       -1.14950000      -3.26810000      -1.06110000
N       -2.13620000      -3.75890000      -1.67920000
H       -0.01030000       1.60180000       0.07110000
H       -1.32290000       1.09930000      -1.03100000
H       -1.52780000       0.93310000       0.73460000
H        0.19670000      -0.40280000      -2.10700000
H        1.53810000      -0.08820000      -0.97660000
H        1.81720000      -2.25170000      -1.91720000
H        1.79430000      -3.77950000       0.00950000
H        2.54060000      -2.20040000       0.29740000
H        0.37060000      -1.70240000       1.25080000
H       -1.05920000      -3.09160000       0.01110000
H       -2.87410000      -3.97860000      -1.01230000
