14
Properties=species:S:1:pos:R:3 pbc="F F F"
C       -0.06010000       1.50860000      -0.08090000
C        0.03980000      -0.00780000       0.06420000
C        0.79060000      -0.42940000       1.31090000
O        1.27400000       0.31360000       2.12770000
O        0.85420000      -1.77540000       1.39840000
C        1.54610000      -2.28220000       2.54570000
H        0.93250000       1.96310000      -0.13150000
H       -0.60810000       1.77070000      -0.99010000
H       -0.57710000       1.95020000       0.77480000
H       -0.95150000      -0.47510000       0.09890000
H        0.54380000      -0.46230000      -0.79710000
H        1.50410000      -3.36840000       2.46280000
H        2.58400000      -1.93930000       2.55450000
H        1.06170000      -1.95020000       3.46770000
