17
Properties=species:S:1:pos:R:3 pbc="F F F"
O        0.01040000      -0.00410000      -0.33570000
C       -0.01600000       1.15120000      -0.02890000
C       -1.13420000       2.13600000       0.34500000
C       -0.03390000       3.14650000       0.77490000
C       -0.06010000       4.67090000       0.41140000
C        0.03720000       4.98220000       1.91090000
O       -1.08240000       4.35130000       2.54610000
C        0.06870000       3.55280000       2.25360000
C        1.07460000       2.21540000       0.20160000
H       -1.71040000       2.45400000      -0.53110000
H       -1.83660000       1.80640000       1.11530000
H        0.82600000       4.97520000      -0.15230000
H       -0.95970000       5.04600000      -0.08340000
H        0.47070000       5.84080000       2.40930000
H        0.53260000       3.01910000       3.07650000
H        1.88780000       1.92520000       0.87440000
H        1.51410000       2.56710000      -0.73810000
