19
Properties=species:S:1:pos:R:3 pbc="F F F"
C       -0.02990000       1.49040000       0.04750000
C        1.31640000       0.78470000       0.02110000
C        2.14350000       0.74090000       1.28680000
O        2.80160000      -0.50760000       1.46550000
C        2.01610000      -1.64380000       1.67560000
C        1.12170000      -1.85180000       2.88010000
C        0.51740000      -1.76090000       1.50000000
O       -0.27560000      -0.62930000       1.26060000
C        0.03430000      -0.00270000       0.04660000
H       -0.32600000       1.96480000       0.97700000
H       -0.37170000       1.99320000      -0.84970000
H        1.87960000       0.79990000      -0.90690000
H        2.95040000       1.47850000       1.25190000
H        1.51370000       0.97910000       2.15340000
H        2.58070000      -2.51460000       1.35430000
H        1.14730000      -2.79970000       3.40640000
H        0.93010000      -0.98790000       3.50770000
H        0.14400000      -2.66740000       1.02200000
H       -0.27460000      -0.54910000      -0.84360000
