17
Properties=species:S:1:pos:R:3 pbc="F F F"
C       -0.08580000       1.34430000      -0.29650000
O        0.90690000       1.66500000       0.70650000
C        1.37870000       0.29700000       0.68990000
C        0.07620000      -0.17280000      -0.01130000
C       -0.94670000      -0.73310000       0.91250000
N       -1.63010000      -1.84510000       0.74650000
C       -2.44690000      -1.94680000       1.85120000
C       -2.25480000      -0.88510000       2.69340000
N       -1.29130000      -0.11240000       2.08300000
H       -1.05820000       1.79700000      -0.08030000
H        0.24450000       1.64150000      -1.30050000
H        2.27750000       0.18770000       0.06870000
H        1.57730000      -0.08780000       1.69480000
H        0.18000000      -0.83540000      -0.86900000
H       -3.12420000      -2.77810000       1.97410000
H       -2.69430000      -0.61030000       3.63770000
H       -0.89900000       0.75300000       2.41950000
