16
Properties=species:S:1:pos:R:3 pbc="F F F"
C       -0.04030000       1.48570000       0.03620000
C        0.01720000       0.03470000       0.02090000
C        0.05660000      -1.17060000       0.00800000
C       -0.00450000      -2.61480000      -0.00510000
O       -1.05750000      -3.21900000       0.01030000
N        1.24160000      -3.25940000      -0.03720000
C        2.50200000      -2.51870000      -0.05540000
C        1.27870000      -4.65470000      -0.05220000
O        2.30200000      -5.29490000      -0.07970000
H        0.96120000       1.92740000       0.04820000
H       -0.56740000       1.85970000      -0.84800000
H       -0.58100000       1.84110000       0.91980000
H        2.60110000      -1.89820000       0.83830000
H        3.30110000      -3.25880000      -0.07930000
H        2.56470000      -1.88010000      -0.93970000
H        0.27090000      -5.08770000      -0.03600000
