21
Properties=species:S:1:pos:R:3 pbc="F F F"
C       -0.05400000       1.54560000       0.00290000
C        0.04730000       0.02030000      -0.02200000
C        0.87740000      -0.54830000      -1.21500000
O        1.98900000       0.26500000      -1.54450000
C        1.32290000      -1.95540000      -0.73920000
C        1.46980000      -1.78710000       0.75750000
O        2.15650000      -0.56830000       1.12340000
C        0.70580000      -0.61320000       1.20300000
C        0.12650000      -0.44620000       2.57990000
H        0.93420000       2.00250000       0.08990000
H       -0.50780000       1.91840000      -0.92010000
H       -0.67000000       1.88760000       0.84070000
H       -0.96610000      -0.40320000      -0.08610000
H        0.27170000      -0.59850000      -2.12370000
H        2.53560000       0.28540000      -0.74660000
H        0.55860000      -2.71480000      -0.94620000
H        2.24630000      -2.25810000      -1.24100000
H        1.67130000      -2.63460000       1.40860000
H        0.13290000       0.60600000       2.88270000
H       -0.91120000      -0.79570000       2.60620000
H        0.70560000      -1.01320000       3.31300000
