15
Properties=species:S:1:pos:R:3 pbc="F F F"
O        0.00240000      -0.00480000       0.00370000
C        0.00780000       1.18810000       0.00990000
O       -1.11460000       1.94930000       0.02880000
C       -0.83440000       3.36690000       0.03290000
C        0.67780000       3.50930000       0.01330000
C        1.42540000       4.60080000      -0.73600000
C        1.44550000       4.59340000       0.75280000
C        1.22530000       2.13520000      -0.00110000
O        2.37540000       1.78270000      -0.01800000
H       -1.31920000       3.79970000      -0.84750000
H       -1.29510000       3.78970000       0.93100000
H        2.31920000       4.28270000      -1.26200000
H        0.81960000       5.34270000      -1.24550000
H        0.85380000       5.33020000       1.28580000
H        2.35310000       4.27030000       1.25130000
