18
Properties=species:S:1:pos:R:3 pbc="F F F"
C        0.00080000       1.43530000       0.00320000
O        0.05640000       0.02760000       0.03020000
C        0.59000000      -0.52230000      -1.15260000
C        0.52790000      -2.05330000      -1.05330000
O       -0.80500000      -2.53360000      -1.12760000
C       -1.45380000      -2.67780000       0.12380000
C        1.30300000      -2.65320000      -2.14160000
C        1.95230000      -3.11570000      -3.03990000
H        1.00110000       1.87850000      -0.12210000
H       -0.64210000       1.80200000      -0.81180000
H       -0.41460000       1.76440000       0.95850000
H        0.01310000      -0.20500000      -2.03510000
H        1.63590000      -0.20530000      -1.29580000
H        0.97850000      -2.34250000      -0.09010000
H       -0.90040000      -3.36180000       0.78550000
H       -1.57860000      -1.71720000       0.63390000
H       -2.43440000      -3.11270000      -0.08530000
H        2.52140000      -3.54040000      -3.82960000
