16
Properties=species:S:1:pos:R:3 pbc="F F F"
O       -0.04440000       1.41720000       0.00810000
C       -0.05720000       0.03370000      -0.00390000
C       -0.42140000      -0.72940000      -1.25940000
C       -1.29300000      -0.82510000      -0.02460000
C       -1.03120000      -1.94820000       0.96560000
C        0.01030000      -2.98220000       0.73620000
N        0.31320000      -1.78360000       1.55610000
C        0.92410000      -0.66090000       0.91750000
O        2.03170000      -0.25170000       1.15020000
H        0.87840000       1.67060000       0.15100000
H       -0.80820000      -0.09390000      -2.04910000
H        0.15950000      -1.57490000      -1.61010000
H       -2.28670000      -0.39680000      -0.05400000
H       -1.82110000      -2.15860000       1.68050000
H       -0.01600000      -3.90840000       1.30300000
H        0.47990000      -3.06850000      -0.23750000
