17
Properties=species:S:1:pos:R:3 pbc="F F F"
N        0.01810000       1.40320000      -0.11350000
C       -0.01420000       0.00930000      -0.05040000
C       -1.21430000      -0.71260000      -0.00880000
C       -1.18090000      -2.10260000       0.00130000
C        0.02140000      -2.80040000      -0.02510000
C        1.23130000      -2.09520000      -0.06670000
N        2.46850000      -2.73650000      -0.14530000
C        1.19370000      -0.69650000      -0.08050000
O        2.39520000       0.01460000      -0.05650000
H        0.89050000       1.78700000       0.22420000
H       -0.78180000       1.85560000       0.30480000
H       -2.15950000      -0.18000000       0.01000000
H       -2.11430000      -2.65530000       0.03670000
H        0.03360000      -3.88550000      -0.01880000
H        2.48270000      -3.66080000       0.26100000
H        3.22660000      -2.16080000       0.19560000
H        2.67340000       0.18200000      -0.96510000
