17
Properties=species:S:1:pos:R:3 pbc="F F F"
C       -0.59740000       1.40850000      -0.03230000
C       -0.05320000      -0.00460000       0.00260000
O        1.13030000      -0.16260000      -0.83060000
C        1.94800000      -0.59490000       0.25770000
C        3.11840000       0.31600000       0.56270000
O        3.28550000       1.40390000       0.08090000
C        0.75490000      -0.44980000       1.22410000
C        0.67300000      -0.10610000       2.64200000
O        0.34940000      -1.42080000       2.15010000
H        0.17930000       2.12550000       0.24640000
H       -0.94320000       1.65040000      -1.04170000
H       -1.44690000       1.50980000       0.65170000
H       -0.82060000      -0.73950000      -0.27310000
H        2.29800000      -1.63230000       0.15360000
H        3.81870000      -0.10690000       1.32150000
H        1.57770000      -0.04490000       3.24440000
H       -0.17140000       0.47410000       3.00910000
