19
Properties=species:S:1:pos:R:3 pbc="F F F"
C        0.27030000       1.62460000       0.32760000
O        1.55440000       1.46730000      -0.34010000
C        1.28120000       0.08980000      -0.57950000
C        1.71970000      -0.55420000      -1.87430000
O        1.66090000      -1.94950000      -1.60530000
C        2.12740000      -2.15060000      -0.26370000
C        1.65520000      -0.94130000       0.54490000
C        0.17260000      -0.91130000       1.03260000
C       -0.15840000       0.17900000      -0.01550000
H        0.38880000       1.84480000       1.39610000
H       -0.31900000       2.41910000      -0.14220000
H        1.06630000      -0.34880000      -2.72620000
H        2.74240000      -0.22160000      -2.12380000
H        1.72550000      -3.10930000       0.07690000
H        3.22700000      -2.21030000      -0.25220000
H        2.39460000      -0.59420000       1.26800000
H       -0.35580000      -1.84990000       0.84190000
H        0.02010000      -0.63410000       2.07940000
H       -1.05530000       0.06800000      -0.62510000
