19
Properties=species:S:1:pos:R:3 pbc="F F F"
C       -0.17850000       1.56140000       0.02880000
C       -0.09440000       0.03790000      -0.00700000
C       -1.44390000      -0.61400000      -0.30260000
O       -1.93190000      -0.29390000      -1.59460000
C        1.11350000      -0.48100000      -0.84010000
N        1.89830000      -0.60340000       0.41180000
C        0.66600000      -0.58220000       1.22350000
C        0.74090000       0.18390000       2.46820000
N        0.77350000       0.79010000       3.45190000
H        0.79600000       2.00270000       0.25280000
H       -0.49970000       1.94450000      -0.94560000
H       -0.88680000       1.90520000       0.79030000
H       -1.33990000      -1.70470000      -0.28870000
H       -2.16720000      -0.34400000       0.48360000
H       -2.25360000       0.61240000      -1.58040000
H        0.89340000      -1.43270000      -1.34140000
H        1.54620000       0.21100000      -1.56860000
H        2.46540000      -1.43770000       0.51220000
H        0.26120000      -1.57650000       1.46590000
