18
Properties=species:S:1:pos:R:3 pbc="F F F"
O        0.15190000       1.39330000      -0.51020000
C        0.17710000       0.11930000       0.09600000
C       -1.24470000      -0.47090000       0.11210000
N       -1.80130000      -0.39330000      -1.29010000
C       -1.80640000      -1.88970000      -1.38130000
C       -1.37780000      -2.02200000       0.09170000
O       -0.21790000      -2.79720000       0.27310000
C       -2.10670000       0.24840000       1.12580000
O       -2.74760000      -0.30110000       1.98840000
H       -0.31470000       1.25020000      -1.34770000
H        0.84270000      -0.58090000      -0.42690000
H        0.56330000       0.24660000       1.11360000
H       -2.74260000      -0.01160000      -1.31020000
H       -2.76840000      -2.33410000      -1.64930000
H       -1.04040000      -2.24960000      -2.07440000
H       -2.18920000      -2.34330000       0.75240000
H       -0.12470000      -2.99480000       1.21000000
H       -2.11240000       1.35420000       1.01420000
