20
Properties=species:S:1:pos:R:3 pbc="F F F"
C        3.00960000      -0.75190000       0.30570000
N        1.61660000      -1.18020000       0.35390000
C        1.22920000      -2.14550000       1.37150000
C        0.75540000      -0.73150000       1.44270000
C        1.22240000       0.20730000       2.53560000
O        1.40850000       1.53290000       2.03940000
C        0.23920000       0.19220000       3.72400000
C        0.69680000       1.07520000       4.86630000
O        0.71130000       0.73340000       6.02170000
H        3.54470000      -0.83150000       1.26440000
H        3.53670000      -1.37520000      -0.42290000
H        3.05550000       0.28900000      -0.02400000
H        0.55900000      -2.94150000       1.05780000
H        1.98330000      -2.44820000       2.09890000
H       -0.26670000      -0.52030000       1.11680000
H        2.21180000      -0.09520000       2.89290000
H        0.61900000       1.77660000       1.54230000
H       -0.73210000       0.57230000       3.37150000
H        0.08420000      -0.82240000       4.10180000
H        1.03100000       2.08810000       4.55720000
