18
Properties=species:S:1:pos:R:3 pbc="F F F"
O        0.53740000       0.26030000       0.89700000
C        0.28360000       1.37610000       0.54240000
C       -1.04230000       2.12560000       0.22500000
C       -0.15930000       3.21510000      -0.39710000
N        0.65380000       3.72790000       0.71360000
C        1.12220000       2.50090000      -0.03630000
C        2.45680000       2.42990000      -0.67040000
C        3.58980000       1.70260000       0.02240000
C        2.98040000       1.12330000      -1.22570000
H       -1.63850000       1.55170000      -0.49020000
H       -1.65810000       2.43610000       1.07150000
H       -0.36150000       3.79990000      -1.28500000
H        1.23360000       4.48970000       0.35710000
H        2.72910000       3.32750000      -1.22140000
H        4.58050000       2.13940000      -0.03310000
H        3.36110000       1.20900000       0.95980000
H        2.35970000       0.24300000      -1.11060000
H        3.54680000       1.16340000      -2.14920000
