17
Properties=species:S:1:pos:R:3 pbc="F F F"
O       -0.26430000      -0.00810000       0.93680000
C       -0.03580000       0.89530000       0.15550000
C       -1.17770000       1.59850000      -0.56630000
O       -0.86490000       1.76590000      -1.93810000
C       -0.89420000       3.09420000      -2.38900000
C        0.15720000       3.99630000      -1.81730000
C        1.25730000       3.71120000      -1.10480000
C        1.84730000       2.46880000      -0.60350000
C        1.35620000       1.31850000      -0.10320000
H       -2.07460000       0.97950000      -0.45730000
H       -1.36080000       2.56520000      -0.07470000
H       -0.76660000       3.04470000      -3.47950000
H       -1.88470000       3.55340000      -2.21970000
H        0.00370000       5.04310000      -2.07710000
H        1.89540000       4.56760000      -0.88980000
H        2.93400000       2.54590000      -0.55360000
H        2.07050000       0.59360000       0.27780000
