15
Properties=species:S:1:pos:R:3 pbc="F F F"
O       -0.06600000       1.34520000      -0.07360000
C        0.06400000      -0.02730000      -0.04020000
C        1.17160000      -0.79630000      -0.77250000
C        0.68720000      -2.19300000      -0.32140000
O        0.52580000      -2.05260000       1.10390000
C       -0.28750000      -0.89050000       1.12980000
C       -1.21210000      -0.89810000      -0.08830000
C       -0.78600000      -2.13500000      -0.81570000
O       -1.36980000      -2.85530000      -1.57620000
H        0.61410000       1.73090000       0.49110000
H        1.13890000      -0.66780000      -1.85750000
H        2.17100000      -0.55440000      -0.39670000
H        1.27130000      -3.07490000      -0.56420000
H       -0.58610000      -0.54740000       2.11010000
H       -2.20530000      -0.47620000      -0.09500000
