18
Properties=species:S:1:pos:R:3 pbc="F F F"
C       -0.11890000       1.48090000      -0.00310000
C        0.06950000      -0.01380000      -0.00550000
C        0.74800000      -0.71640000      -1.19790000
C        0.45440000      -2.12070000      -0.60240000
C        1.02740000      -1.93900000       0.80440000
C        0.79890000      -0.67360000       1.16360000
C       -1.05410000      -1.96420000      -0.41540000
N       -1.93180000      -2.85990000      -0.55880000
O       -1.27120000      -0.66120000      -0.06220000
H        0.85450000       1.98000000       0.01740000
H       -0.66010000       1.80540000      -0.89570000
H       -0.68640000       1.79810000       0.87670000
H        0.23920000      -0.51650000      -2.14560000
H        1.81460000      -0.50210000      -1.27780000
H        0.74180000      -3.01100000      -1.15410000
H        1.44000000      -2.74160000       1.40060000
H        0.98280000      -0.19910000       2.11840000
H       -2.86160000      -2.48220000      -0.36490000
