18
Properties=species:S:1:pos:R:3 pbc="F F F"
C       -0.04370000       1.48470000       0.07300000
C        1.51520000       1.60300000      -0.02070000
C        1.61160000       0.08060000       0.11950000
C        2.60780000      -0.99090000      -0.33460000
C        2.17530000      -1.87060000       0.88690000
C        1.35180000      -0.67680000       1.45110000
O       -0.07240000      -0.76340000       1.23160000
C        0.07120000      -0.06430000      -0.02330000
H       -0.47200000       1.80170000       1.02590000
H       -0.59350000       1.96240000      -0.74120000
H        1.84180000       1.95270000      -1.00520000
H        2.02300000       2.20290000       0.74010000
H        2.46270000      -1.40900000      -1.33490000
H        3.64670000      -0.65620000      -0.25190000
H        1.53830000      -2.72150000       0.63740000
H        2.99450000      -2.21340000       1.52310000
H        1.60520000      -0.31140000       2.45070000
H       -0.44730000      -0.56250000      -0.84780000
