15
Properties=species:S:1:pos:R:3 pbc="F F F"
C       -0.00500000       1.52930000       0.03390000
C        0.03810000       0.03290000       0.02700000
C       -0.00000000      -0.77160000      -1.07920000
O       -0.13940000      -0.49270000      -2.41020000
N        0.06060000      -2.09620000      -0.67260000
C        0.12830000      -2.12900000       0.69200000
O        0.17860000      -3.35070000       1.28690000
C        0.13010000      -0.84420000       1.16820000
H        0.93370000       1.97190000       0.39090000
H       -0.19260000       1.91250000      -0.97360000
H       -0.80270000       1.90760000       0.68390000
H        0.68540000      -0.12600000      -2.74650000
H       -0.01220000      -2.89640000      -1.27630000
H        0.17400000      -3.21780000       2.23940000
H        0.18550000      -0.54670000       2.20470000
