18
Properties=species:S:1:pos:R:3 pbc="F F F"
C        0.00370000       1.28140000      -0.14500000
C        1.39410000       0.67860000      -0.03650000
C        1.71850000       0.31560000       1.43070000
C        0.46980000      -0.63720000       1.46130000
C        0.16560000      -0.19880000       0.02570000
O        0.07990000      -1.05560000      -1.06850000
C        1.02120000      -0.57950000      -2.04770000
C        2.11460000       0.25080000      -1.29570000
H       -0.37520000       1.89340000       0.66930000
H       -0.30290000       1.61420000      -1.13030000
H        2.66240000      -0.22310000       1.53990000
H        1.71430000       1.15210000       2.13640000
H        0.75650000      -1.68940000       1.50660000
H       -0.30450000      -0.44640000       2.21030000
H        1.42260000      -1.44830000      -2.57730000
H        0.50210000       0.05120000      -2.78200000
H        2.49150000       1.06000000      -1.92950000
H        2.96580000      -0.38550000      -1.03100000
