21
Properties=species:S:1:pos:R:3 pbc="F F F"
C       -0.02620000       1.61640000      -0.19280000
C        0.05770000       0.11880000      -0.00180000
C        1.33340000      -0.65580000      -0.18340000
O        2.51800000       0.10030000      -0.14310000
C        2.97210000       0.14320000       1.21670000
C        3.87630000       1.34700000       1.40610000
C        1.68740000       0.09890000       2.09530000
O        1.19290000       1.37060000       2.49470000
C        0.69330000      -0.60670000       1.18300000
H        0.94020000       2.09100000      -0.02780000
H       -0.34650000       1.83800000      -1.21710000
H       -0.74590000       2.06540000       0.49660000
H       -0.82200000      -0.41530000      -0.35720000
H        1.38890000      -1.55310000      -0.79390000
H        3.53870000      -0.78060000       1.42350000
H        3.32320000       2.27700000       1.25350000
H        4.30520000       1.35020000       2.41470000
H        4.70270000       1.31340000       0.69170000
H        1.87720000      -0.51870000       2.98550000
H        1.82110000       1.75360000       3.11540000
H        0.15800000      -1.45660000       1.58850000
