22
Properties=species:S:1:pos:R:3 pbc="F F F"
C       -0.11700000       1.57910000       0.07060000
C       -0.10980000       0.04860000       0.06690000
C        0.81920000      -0.54490000       1.14420000
C        0.83680000      -2.04380000       1.16640000
C        1.86940000      -2.85150000       0.89790000
C        1.52480000      -4.32200000       1.01950000
C        0.07610000      -4.29220000       1.49540000
N       -0.10400000      -3.64550000       2.81390000
C       -0.35190000      -2.87010000       1.56090000
H        0.88680000       1.97950000      -0.11030000
H       -0.77880000       1.97690000      -0.70510000
H       -0.45910000       1.97160000       1.03470000
H       -1.13170000      -0.32130000       0.21820000
H        0.20570000      -0.32120000      -0.91630000
H        1.83770000      -0.17190000       0.98240000
H        0.50180000      -0.16860000       2.12760000
H        2.87090000      -2.50990000       0.65720000
H        1.61990000      -4.84620000       0.05890000
H        2.17520000      -4.84210000       1.73330000
H       -0.60590000      -5.08610000       1.21020000
H       -1.00370000      -3.94540000       3.18790000
H       -1.36540000      -2.54690000       1.34620000
