20
Properties=species:S:1:pos:R:3 pbc="F F F"
C       -0.53200000       0.75440000      -0.40960000
O        0.74200000       0.18070000      -0.17690000
C        1.13600000      -0.80990000      -1.09750000
C        0.63280000      -2.22700000      -0.75360000
C        0.97310000      -2.53290000       0.70400000
O        2.06190000      -2.89150000       1.06750000
N       -0.80690000      -2.35730000      -0.94540000
C       -1.25850000      -2.68630000      -2.29380000
C       -1.30870000      -3.70520000      -1.21020000
H       -0.60020000       1.16770000      -1.42800000
H       -1.34130000       0.02970000      -0.26910000
H       -0.64220000       1.57250000       0.30690000
H        0.82150000      -0.55210000      -2.12140000
H        2.23040000      -0.83810000      -1.07100000
H        1.20870000      -2.93410000      -1.37850000
H        0.12850000      -2.38950000       1.41100000
H       -2.16460000      -2.18740000      -2.62450000
H       -0.50340000      -2.81970000      -3.06680000
H       -0.58350000      -4.51600000      -1.25740000
H       -2.25050000      -3.96050000      -0.73450000
