16
Properties=species:S:1:pos:R:3 pbc="F F F"
O       -0.89920000       0.70240000      -0.91870000
C        0.10300000       0.69280000      -0.24040000
C        1.13280000       1.75300000      -0.27930000
C        1.08280000       2.88640000      -1.00480000
C        2.26620000       3.78590000      -0.78820000
C        3.22750000       2.95780000       0.09050000
N        3.85490000       3.71200000       1.16870000
H        4.41010000       3.06550000       1.72540000
H        3.13520000       4.05680000       1.80080000
C        2.37670000       1.74210000       0.53220000
O        2.68090000       0.95790000       1.40200000
H        0.32050000      -0.13070000       0.46820000
H        0.26030000       3.13830000      -1.66630000
H        2.71110000       4.11090000      -1.73470000
H        1.95600000       4.70650000      -0.27510000
H        4.03020000       2.55350000      -0.54090000
