19
Properties=species:S:1:pos:R:3 pbc="F F F"
C       -0.00100000       1.53110000       0.14940000
C       -0.12600000       0.01870000       0.14320000
O        0.86830000      -0.51260000       1.02060000
C        0.85070000      -1.87930000       1.11640000
C       -0.09160000      -2.62830000       1.99040000
C        1.41410000      -2.69020000       2.30160000
C        2.07920000      -3.60350000       1.31680000
O        2.87550000      -4.49310000       1.41320000
C        1.50260000      -2.83350000       0.09470000
H        0.99220000       1.83620000      -0.19130000
H       -0.74820000       1.97510000      -0.51480000
H       -0.15370000       1.92520000       1.15800000
H       -1.12360000      -0.29770000       0.48200000
H        0.02050000      -0.38120000      -0.87140000
H       -0.63490000      -2.02130000       2.70770000
H       -0.62160000      -3.51180000       1.64520000
H        1.79120000      -2.36990000       3.26460000
H        0.85230000      -3.37430000      -0.59870000
H        2.32050000      -2.36020000      -0.45690000
