18
Properties=species:S:1:pos:R:3 pbc="F F F"
C        0.21250000       1.20350000       1.19710000
C       -0.22710000       0.55490000      -0.11420000
O        0.77440000      -0.36980000      -0.58950000
C       -1.56930000      -0.11660000      -0.03200000
C       -2.05730000      -0.99830000      -0.96210000
N       -1.54170000      -1.44360000      -2.16380000
O       -3.29040000      -1.43450000      -0.62560000
C       -3.62440000      -0.81370000       0.55900000
C       -2.61410000      -0.00580000       0.95530000
H        1.21190000       1.63050000       1.08180000
H       -0.47500000       2.00320000       1.49010000
H        0.23830000       0.46680000       2.00830000
H       -0.23430000       1.32550000      -0.89670000
H        0.80000000      -1.09500000       0.04670000
H       -0.53120000      -1.36440000      -2.16920000
H       -1.86080000      -2.36740000      -2.42390000
H       -4.59160000      -1.06650000       0.95650000
H       -2.60190000       0.60110000       1.84740000
