19
Properties=species:S:1:pos:R:3 pbc="F F F"
C       -0.01380000       1.53080000      -0.08210000
C        0.05430000       0.01440000      -0.00990000
O        0.67800000      -0.45130000      -1.19220000
C        0.71850000      -1.86910000      -1.27490000
C        1.48010000      -2.46030000      -0.08900000
N        0.95050000      -1.99980000       1.20220000
C        0.80070000      -0.53820000       1.23690000
C        2.12900000       0.08470000       1.38110000
N        3.16010000       0.59360000       1.49150000
H        0.99020000       1.95860000      -0.14030000
H       -0.57150000       1.83220000      -0.97210000
H       -0.51810000       1.93840000       0.79960000
H       -0.96780000      -0.40340000       0.05240000
H       -0.30920000      -2.27280000      -1.30190000
H        1.20550000      -2.10890000      -2.22480000
H        1.44470000      -3.55390000      -0.10970000
H        2.53260000      -2.16020000      -0.14810000
H        0.03650000      -2.41260000       1.36510000
H        0.22370000      -0.27960000       2.13280000
