21
Properties=species:S:1:pos:R:3 pbc="F F F"
C       -0.47450000       1.42630000      -0.12860000
C       -0.07270000      -0.04040000       0.00270000
C        1.09600000      -0.47520000      -0.93070000
C        2.05460000      -0.55530000       0.29130000
O        2.74510000      -1.77070000       0.51820000
C        3.03180000       0.59960000       0.41380000
O        2.91330000       1.68150000      -0.10520000
C        0.80940000      -0.43100000       1.23660000
C        0.85650000       0.45430000       2.47430000
H        0.39880000       2.08410000      -0.12210000
H       -1.00210000       1.58690000      -1.07510000
H       -1.14660000       1.73280000       0.68020000
H       -0.96490000      -0.66630000      -0.08880000
H        0.95740000      -1.46300000      -1.37560000
H        1.38430000       0.24520000      -1.69960000
H        3.37050000      -1.90890000      -0.20220000
H        3.91100000       0.35180000       1.05210000
H        0.58180000      -1.46010000       1.53200000
H        1.10460000       1.49210000       2.23410000
H       -0.11540000       0.45520000       2.97920000
H        1.59850000       0.08560000       3.19080000
