19
Properties=species:S:1:pos:R:3 pbc="F F F"
C        0.05200000       1.52110000      -0.02330000
C       -0.01810000      -0.00450000       0.02230000
O        0.74110000      -0.52390000       1.10840000
C       -1.47370000      -0.52780000       0.06720000
C       -2.27060000      -0.06170000      -1.14550000
O       -3.42590000       0.27580000      -1.10390000
C       -1.50450000      -2.05000000       0.12330000
C       -2.72950000      -2.81960000      -0.11320000
O       -1.71900000      -2.72720000      -1.12480000
H        1.09460000       1.84870000      -0.02940000
H       -0.44120000       1.92350000      -0.91430000
H       -0.44420000       1.95830000       0.85240000
H        0.46690000      -0.41780000      -0.87100000
H        0.44490000      -0.08260000       1.91280000
H       -1.97170000      -0.12970000       0.96160000
H       -1.70790000      -0.06790000      -2.10360000
H       -0.72290000      -2.48530000       0.74330000
H       -2.83830000      -3.80180000       0.34320000
H       -3.65750000      -2.29590000      -0.33500000
