19
Properties=species:S:1:pos:R:3 pbc="F F F"
C       -0.30650000       1.30420000      -0.11950000
O       -0.04110000      -0.09200000       0.02090000
C        0.66130000      -0.61410000      -1.04590000
C        2.12980000      -0.40780000      -1.37810000
O        2.21740000      -1.76840000      -1.88060000
C        0.87080000      -2.05870000      -1.46040000
C        0.56390000      -3.39980000      -0.88960000
C       -0.08070000      -1.18030000      -2.24780000
O       -1.44340000      -1.39090000      -2.02240000
H        0.62450000       1.88550000      -0.12200000
H       -0.85910000       1.51530000      -1.04390000
H       -0.90820000       1.59920000       0.74220000
H        2.39400000       0.33440000      -2.14040000
H        2.76050000      -0.27660000      -0.48980000
H        1.09510000      -3.57420000       0.05070000
H       -0.51170000      -3.48710000      -0.71860000
H        0.86020000      -4.17840000      -1.60140000
H        0.15340000      -0.89200000      -3.27190000
H       -1.65590000      -0.98830000      -1.16970000
