22
Properties=species:S:1:pos:R:3 pbc="F F F"
C       -0.91900000       1.17290000      -1.53990000
C       -0.48930000      -0.07810000      -0.80410000
C        0.95000000      -0.55220000      -0.71490000
C        2.12120000       0.16750000      -1.34580000
C        0.24330000      -0.04460000       0.52500000
C        0.64470000       1.25500000       1.19790000
N       -0.16160000      -1.06760000       1.46400000
C        0.72110000      -1.76840000       2.22710000
O        1.92900000      -1.68430000       2.15770000
H       -0.17850000       1.97370000      -1.48500000
H       -1.08400000       0.95470000      -2.60060000
H       -1.85790000       1.56660000      -1.13450000
H       -1.21440000      -0.88590000      -0.88170000
H        1.06170000      -1.63210000      -0.72960000
H        1.99410000       1.25220000      -1.37530000
H        3.03870000      -0.04530000      -0.78790000
H        2.26910000      -0.17120000      -2.37710000
H        0.95540000       2.01790000       0.48210000
H       -0.18990000       1.66270000       1.77950000
H        1.47990000       1.07020000       1.87950000
H       -1.14190000      -1.15080000       1.68930000
H        0.20130000      -2.45430000       2.92800000
