21
Properties=species:S:1:pos:R:3 pbc="F F F"
C       -0.31320000       1.27930000      -0.11570000
C        0.15450000      -0.15230000      -0.05960000
O       -0.62610000      -1.06470000      -0.79450000
C       -1.66300000      -1.74160000      -0.06840000
C       -1.24890000      -2.16530000       1.35750000
C        0.28150000      -2.15910000       1.51250000
C        0.80300000      -0.77490000       1.16790000
C        1.60850000      -0.54770000      -0.10310000
O        1.98510000      -1.61960000      -0.90470000
H        0.39720000       1.93480000       0.39740000
H       -0.40390000       1.61720000      -1.15340000
H       -1.28890000       1.40160000       0.36930000
H       -2.56260000      -1.11170000      -0.04200000
H       -1.89410000      -2.61680000      -0.68300000
H       -1.67470000      -1.47300000       2.09250000
H       -1.66890000      -3.15250000       1.57610000
H        0.55670000      -2.42910000       2.53550000
H        0.74170000      -2.90290000       0.85310000
H        1.01040000      -0.10850000       2.00040000
H        2.35440000       0.24240000      -0.08780000
H        1.17920000      -1.88650000      -1.37050000
