21
Properties=species:S:1:pos:R:3 pbc="F F F"
C       -0.41570000      -0.87350000      -0.84160000
C       -0.26280000       0.20770000      -0.33520000
C       -0.04260000       1.50090000       0.27460000
C        0.16400000       1.60290000       1.81910000
C        1.21810000       2.70880000       1.56120000
C        1.34300000       2.20820000       0.09710000
C        2.61600000       1.38750000      -0.24420000
C        3.14100000       2.61000000      -1.04530000
C        1.69330000       3.17270000      -1.05770000
H       -0.56470000      -1.82660000      -1.28500000
H       -0.83280000       2.19660000      -0.03390000
H       -0.71220000       1.85400000       2.42010000
H        0.61450000       0.68890000       2.21230000
H        0.77600000       3.70960000       1.60840000
H        2.12380000       2.69790000       2.17290000
H        3.21970000       1.02710000       0.59360000
H        2.37970000       0.54040000      -0.89460000
H        3.81630000       3.23230000      -0.45190000
H        3.61230000       2.41140000      -2.01040000
H        1.16060000       2.90580000      -1.97640000
H        1.55520000       4.24190000      -0.87180000
