13
Properties=species:S:1:pos:R:3 pbc="F F F"
O        0.07020000      -0.06550000       0.00150000
C        0.02240000       1.14740000       0.00880000
C       -1.24670000       1.88780000       0.03030000
C       -1.26820000       3.24330000       0.03800000
N       -0.05600000       3.91730000       0.02500000
C        1.11120000       3.20800000       0.00510000
N        1.20810000       1.92820000      -0.00330000
C       -2.44390000       4.04000000       0.05850000
C       -3.42480000       4.73650000       0.07580000
H       -2.17000000       1.32470000       0.03990000
H       -0.04700000       4.92470000       0.03040000
H        2.01050000       3.82310000      -0.00390000
H       -4.30210000       5.33620000       0.09100000
