16
Properties=species:S:1:pos:R:3 pbc="F F F"
N        0.38360000       1.03460000       0.34720000
C        0.22920000      -0.15120000      -0.04010000
C       -0.81820000      -1.13050000       0.44060000
O       -0.74970000      -2.19600000      -0.50180000
C        0.53680000      -2.14850000      -1.07620000
O        0.96980000      -0.79420000      -0.99880000
C        1.50090000      -3.06890000      -0.35050000
C        2.89840000      -2.70010000      -0.10380000
O        1.91780000      -2.63000000       0.93830000
H        1.17230000       1.47890000      -0.12370000
H       -0.58620000      -1.46850000       1.45750000
H       -1.82030000      -0.69800000       0.42000000
H        0.45480000      -2.43180000      -2.13180000
H        1.22630000      -4.12230000      -0.41420000
H        3.64280000      -3.48530000       0.01270000
H        3.26370000      -1.73950000      -0.45670000
