14
Properties=species:S:1:pos:R:3 pbc="F F F"
O       -0.06500000       1.37380000       0.02020000
C       -0.00600000       0.00510000       0.02720000
C       -0.49050000      -0.71500000       1.25640000
C       -1.36510000      -0.76600000       0.02010000
O       -2.47260000       0.05980000      -0.06890000
C       -1.46640000      -2.01940000      -0.69600000
N       -1.55720000      -3.02860000      -1.25520000
C        1.10640000      -0.55380000      -0.79300000
O        1.82090000       0.18290000      -1.43080000
H        0.54180000       1.65030000      -0.68660000
H        0.01460000      -1.62150000       1.57220000
H       -0.84690000      -0.06370000       2.04660000
H       -3.17200000      -0.30280000       0.48810000
H        1.22930000      -1.65240000      -0.79700000
