18
Properties=species:S:1:pos:R:3 pbc="F F F"
N       -0.05650000       1.31390000      -0.18820000
C       -0.01400000       0.07070000       0.03450000
C       -1.26390000      -0.78300000       0.04830000
C       -1.11750000      -1.96230000       0.98540000
C       -1.62850000      -1.92750000       2.40440000
C       -2.26420000      -2.83290000       1.36230000
O        0.10540000      -2.62890000       0.75250000
C        1.17350000      -1.77210000       0.99840000
O        1.16970000      -0.60760000       0.16800000
H        0.89070000       1.69920000      -0.19870000
H       -2.11820000      -0.15280000       0.29760000
H       -1.41140000      -1.16350000      -0.97100000
H       -1.02000000      -2.40430000       3.16450000
H       -2.17560000      -1.05290000       2.73900000
H       -3.24730000      -2.58000000       0.98040000
H       -2.06190000      -3.89500000       1.43920000
H        1.17530000      -1.44350000       2.04940000
H        2.09310000      -2.30790000       0.75990000
