14
Properties=species:S:1:pos:R:3 pbc="F F F"
N        0.08560000       1.46090000      -0.01170000
C        0.04160000       0.01250000      -0.00300000
C        0.24980000      -0.64500000       1.42670000
C       -1.14450000      -1.26000000       1.30460000
O       -2.06340000      -0.17450000       1.08340000
C       -1.35610000      -0.70120000      -0.03570000
C        0.94820000      -0.53800000      -1.00790000
N        1.62830000      -0.99800000      -1.82130000
H       -0.07340000       1.82030000      -0.94880000
H       -0.67340000       1.79470000       0.57780000
H        1.05920000      -1.37610000       1.43410000
H        0.38610000       0.07670000       2.23420000
H       -1.54040000      -2.15910000       1.75850000
H       -1.92510000      -1.04420000      -0.89220000
