14
Properties=species:S:1:pos:R:3 pbc="F F F"
C        0.06820000       1.40620000       0.02700000
N        0.05190000      -0.04460000       0.02140000
C       -1.08900000      -0.62220000      -0.03190000
N       -2.33050000      -0.06950000      -0.10580000
C       -1.14730000      -2.14570000      -0.04450000
N        0.06750000      -2.72550000      -0.07420000
O       -2.21850000      -2.73240000      -0.02640000
H        1.10070000       1.76340000       0.03060000
H       -0.43450000       1.83040000      -0.85650000
H       -0.42820000       1.82440000       0.91820000
H       -2.47770000       0.89460000       0.13440000
H       -3.09430000      -0.72200000      -0.00150000
H        0.87540000      -2.12170000      -0.05390000
H        0.14620000      -3.72700000      -0.05040000
