20
Properties=species:S:1:pos:R:3 pbc="F F F"
C        0.19050000       1.49290000       0.01560000
C        0.06540000      -0.00160000      -0.01690000
C       -1.23220000      -0.73060000       0.40720000
C       -0.28950000      -1.82410000       0.86970000
N        0.86990000      -0.87630000       1.01660000
C        0.85360000      -1.90660000      -0.09020000
C        1.88390000      -2.99540000      -0.07500000
O        3.18980000      -2.47520000      -0.26240000
C        0.64590000      -0.85450000      -1.16650000
H        1.22670000       1.80240000      -0.15410000
H       -0.43140000       1.94580000      -0.76560000
H       -0.13100000       1.89330000       0.98230000
H       -1.70620000      -0.23520000       1.25920000
H       -1.98150000      -0.95100000      -0.36050000
H       -0.47420000      -2.59580000       1.60900000
H        1.80650000      -3.55850000       0.86890000
H        1.71150000      -3.70130000      -0.89530000
H        3.29160000      -1.77750000       0.39650000
H        0.00520000      -1.07820000      -2.02630000
H        1.61000000      -0.46930000      -1.50850000
