17
Properties=species:S:1:pos:R:3 pbc="F F F"
N        0.14670000       0.62620000       0.89110000
C       -0.12620000      -0.68860000       0.56100000
N        0.98680000      -1.45670000       0.29920000
H        0.77680000      -2.33680000      -0.14900000
H        1.82310000      -0.99570000      -0.02260000
O       -1.26590000      -1.12570000       0.50940000
C       -2.11680000      -1.71480000      -3.38110000
C       -2.95810000      -1.19700000      -2.49230000
C       -1.81990000      -3.74820000      -0.40950000
O       -0.73050000      -3.85000000      -0.81620000
O       -2.90860000      -3.70730000      -0.01470000
H        1.03120000       0.83280000       1.32930000
H       -0.64370000       1.10630000       1.29280000
H       -2.43230000      -1.99990000      -4.38050000
H       -1.06970000      -1.87970000      -3.14510000
H       -2.63580000      -0.91990000      -1.49330000
H       -4.00630000      -1.03700000      -2.72870000
