20
Properties=species:S:1:pos:R:3 pbc="F F F"
C       -0.16340000       1.45360000      -0.03360000
N       -0.10880000       0.00190000      -0.05760000
C        0.58000000      -0.59230000      -0.93260000
C        0.61990000      -2.10010000      -1.02050000
C        1.99830000      -2.58590000      -1.46900000
O        2.39010000      -1.87330000      -2.63640000
C        2.50190000      -0.50920000      -2.37710000
C        2.89920000       0.20870000      -3.64620000
O        1.26080000       0.06570000      -1.92930000
H        0.61030000       1.94440000      -0.63390000
H       -1.14340000       1.78420000      -0.39920000
H       -0.08400000       1.79080000       1.00520000
H        0.32650000      -2.52010000      -0.05710000
H       -0.11690000      -2.41470000      -1.76990000
H        2.74420000      -2.43660000      -0.67180000
H        1.98770000      -3.64530000      -1.73440000
H        3.23880000      -0.34780000      -1.57010000
H        2.14770000       0.02740000      -4.41830000
H        2.97020000       1.28260000      -3.46120000
H        3.86610000      -0.16220000      -3.99350000
