16
Properties=species:S:1:pos:R:3 pbc="F F F"
C        0.07810000       1.36330000      -0.13500000
C        1.51710000       1.79910000       0.21610000
N        2.13560000       0.49170000       0.32920000
C        3.31170000       0.13970000       1.12160000
C        2.95640000      -1.33780000       1.48960000
N        1.48230000      -1.43300000       1.41420000
C        1.14790000      -0.38980000       0.77510000
O       -0.08150000       0.06740000       0.48390000
H       -0.69190000       2.02740000       0.26080000
H       -0.05550000       1.25420000      -1.21640000
H        1.96310000       2.41520000      -0.56940000
H        1.55110000       2.36050000       1.16480000
H        4.23980000       0.23690000       0.55300000
H        3.38250000       0.77360000       2.02060000
H        3.41430000      -2.03540000       0.77570000
H        3.31080000      -1.61070000       2.48710000
