11
Properties=species:S:1:pos:R:3 pbc="F F F"
N        0.06450000       1.38750000       0.16420000
C        0.00560000       0.00980000       0.03920000
C       -1.05690000      -0.84510000       0.01310000
O       -0.61940000      -2.12570000      -0.04050000
N        0.74090000      -2.15650000      -0.05160000
C        1.11980000      -0.88970000      -0.00430000
C        2.49010000      -0.51390000      -0.01200000
N        3.57950000      -0.12380000      -0.02440000
H        0.92830000       1.79570000      -0.16580000
H       -0.73730000       1.88370000      -0.19640000
H       -2.12540000      -0.70890000       0.02940000
