17
Properties=species:S:1:pos:R:3 pbc="F F F"
C        0.12650000       1.55540000       0.03060000
C        1.29650000       0.63670000      -0.11890000
C       -0.09290000       0.05390000       0.06310000
C       -0.43040000      -0.58460000       1.34730000
N       -0.01340000      -0.24440000       2.49980000
C       -0.62150000      -1.17260000       3.46070000
C       -1.48520000      -2.12580000       2.59170000
O       -1.28070000      -1.64630000       1.24520000
H        0.01120000       2.07160000       0.97610000
H       -0.23420000       2.08950000      -0.84120000
H        1.75490000       0.52780000      -1.09530000
H        1.96680000       0.53610000       0.72630000
H       -0.56500000      -0.40740000      -0.79520000
H        0.15710000      -1.70660000       4.01670000
H       -1.21970000      -0.62080000       4.19430000
H       -1.16540000      -3.17090000       2.63650000
H       -2.55480000      -2.07530000       2.81570000
