16
Properties=species:S:1:pos:R:3 pbc="F F F"
C       -0.02270000       1.55380000      -0.00810000
C        0.00990000       0.03400000      -0.01390000
C       -1.16030000      -0.62080000      -0.52910000
C       -2.13030000      -1.18130000      -0.96950000
C        1.35580000      -0.69030000      -0.26370000
O        2.51560000       0.05350000      -0.42180000
C        0.73240000      -0.71470000       1.10360000
O        1.36210000       0.09400000       2.06580000
H        0.95710000       1.96750000       0.23120000
H       -0.31410000       1.91970000      -0.99620000
H       -0.74530000       1.92540000       0.72360000
H       -2.99040000      -1.66650000      -1.35900000
H        1.33330000      -1.57510000      -0.89090000
H        2.71230000       0.43380000       0.44640000
H        0.26560000      -1.61840000       1.48660000
H        1.91630000      -0.47560000       2.61080000
