20
Properties=species:S:1:pos:R:3 pbc="F F F"
C       -0.11250000       1.55450000      -0.00500000
C        0.06000000       0.03540000       0.00610000
C        0.74880000      -0.49830000      -1.25710000
C        0.89780000      -2.02090000      -1.21700000
C        1.51280000      -2.49010000       0.07850000
N        2.04260000      -3.75270000       0.05310000
C        1.47160000      -1.72690000       1.20020000
C        0.79880000      -0.43830000       1.27130000
O        0.78980000       0.23250000       2.29240000
H        0.85440000       2.05600000      -0.12270000
H       -0.76060000       1.86800000      -0.82980000
H       -0.54360000       1.89300000       0.93840000
H       -0.93860000      -0.42850000       0.06290000
H        0.18530000      -0.20440000      -2.14950000
H        1.74200000      -0.03950000      -1.34450000
H       -0.08370000      -2.50280000      -1.33030000
H        1.50620000      -2.37260000      -2.06070000
H        2.34840000      -4.12550000      -0.83100000
H        2.57440000      -4.06090000       0.85210000
H        1.93280000      -2.07080000       2.12220000
