16
Properties=species:S:1:pos:R:3 pbc="F F F"
O       -0.93800000       1.43610000       0.40930000
C        0.13270000       0.98430000       0.09030000
C        1.38900000       1.80220000       0.00580000
C        1.46580000       3.11930000       0.80980000
C        1.67810000       3.93450000      -0.50280000
C        1.66910000       2.61970000      -1.32570000
N        2.98450000       2.15070000      -1.75720000
C        3.34790000       1.26890000      -0.92420000
O        2.53380000       0.93400000       0.11690000
H        0.26630000      -0.07970000      -0.20370000
H        0.53300000       3.33280000       1.33420000
H        2.29610000       3.13610000       1.51760000
H        0.85450000       4.60950000      -0.74350000
H        2.61960000       4.48110000      -0.57610000
H        0.94570000       2.55740000      -2.14140000
H        4.28140000       0.71850000      -0.95250000
