25
Properties=species:S:1:pos:R:3 pbc="F F F"
C       -0.09590000       1.39670000      -0.12090000
O       -0.10000000      -0.00870000      -0.09460000
C        0.74040000      -0.58440000      -1.07380000
C        0.66670000      -2.10010000      -0.96650000
C        1.15370000      -2.57720000       0.40300000
C       -0.69640000      -2.73810000      -1.38150000
C        0.06860000      -3.76810000      -2.25950000
C       -0.47490000      -4.09070000      -3.64320000
C        1.33280000      -2.86750000      -2.15100000
H        0.90810000       1.80780000       0.07240000
H       -0.44280000       1.78950000      -1.09040000
H       -0.77510000       1.74310000       0.66230000
H        0.42440000      -0.26000000      -2.08080000
H        1.78250000      -0.24160000      -0.93510000
H        0.55490000      -2.12730000       1.19930000
H        1.08520000      -3.66620000       0.49300000
H        2.20110000      -2.29500000       0.56470000
H       -1.32490000      -3.12740000      -0.57640000
H       -1.29900000      -2.05300000      -1.98670000
H        0.22230000      -4.69870000      -1.70280000
H       -0.63830000      -3.17500000      -4.22360000
H        0.21870000      -4.72370000      -4.20870000
H       -1.43280000      -4.61980000      -3.58180000
H        1.45390000      -2.23430000      -3.03750000
H        2.28850000      -3.35830000      -1.94530000
