18
Properties=species:S:1:pos:R:3 pbc="F F F"
C        0.02720000       1.52790000      -0.16190000
C        1.58160000       1.57270000       0.11450000
C        1.52700000       0.12230000       0.63080000
O        1.63320000      -0.31880000       1.97670000
C        0.91990000      -1.49840000       1.48640000
C       -0.50720000      -0.91380000       1.23600000
C        0.03210000       0.01380000       0.14140000
N        0.52780000      -0.89550000      -0.94210000
C        1.56810000      -1.27650000       0.01750000
H       -0.54480000       2.10460000       0.56960000
H       -0.29300000       1.80640000      -1.16750000
H        2.20160000       1.70600000      -0.77380000
H        1.89700000       2.28900000       0.87580000
H        1.06900000      -2.38530000       2.10080000
H       -1.25150000      -1.63780000       0.89050000
H       -0.86720000      -0.41310000       2.13690000
H       -0.12570000      -1.63330000      -1.20250000
H        2.42890000      -1.87590000      -0.28730000
