23
Properties=species:S:1:pos:R:3 pbc="F F F"
C        0.61540000      -0.38020000       1.49320000
C       -0.30180000      -0.00950000       0.31620000
C       -0.79960000       1.43760000       0.45320000
C        0.32600000      -0.27450000      -1.07540000
C        1.70260000       0.36700000      -1.26350000
O        2.03670000       0.27970000      -2.64420000
C        0.41300000      -1.78300000      -1.42400000
C       -0.88410000      -2.44170000      -1.50510000
C       -1.96320000      -2.96840000      -1.57350000
H        0.97390000      -1.41250000       1.43170000
H        1.49090000       0.27670000       1.54750000
H        0.07610000      -0.27950000       2.44060000
H       -1.18440000      -0.65890000       0.36970000
H        0.02420000       2.15990000       0.43240000
H       -1.49190000       1.69750000      -0.35420000
H       -1.32690000       1.57600000       1.40300000
H       -0.33130000       0.18450000      -1.82460000
H        1.67770000       1.41640000      -0.93530000
H        2.45150000      -0.15390000      -0.64690000
H        2.93570000       0.60060000      -2.75820000
H        0.93310000      -1.87530000      -2.38320000
H        1.03930000      -2.29970000      -0.68440000
H       -2.91010000      -3.44360000      -1.64010000
