19
Properties=species:S:1:pos:R:3 pbc="F F F"
C        0.07590000       1.30090000      -0.41050000
C       -0.00530000      -0.18530000      -0.05050000
C       -1.43940000      -0.65550000       0.13400000
N       -2.29490000      -0.60430000      -1.09710000
C       -2.76310000      -2.00150000      -0.87530000
C       -1.73210000      -2.16740000       0.26380000
O       -0.91820000      -3.01660000      -0.60150000
C       -1.87320000      -2.98420000      -1.61530000
N       -1.91810000      -3.58720000      -2.70990000
H        1.11260000       1.61350000      -0.56540000
H       -0.47770000       1.50140000      -1.33310000
H       -0.34640000       1.92930000       0.38240000
H        0.45840000      -0.78860000      -0.83680000
H        0.55010000      -0.38310000       0.87580000
H       -1.90530000      -0.13070000       0.98150000
H       -3.04350000       0.07560000      -1.04930000
H       -3.83500000      -2.18520000      -0.82460000
H       -1.88350000      -2.62420000       1.24030000
H       -1.08980000      -4.16780000      -2.85380000
