19
Properties=species:S:1:pos:R:3 pbc="F F F"
C       -0.09560000       1.61190000       0.06600000
C       -0.09490000       0.09080000       0.01850000
C        0.65210000      -0.46130000      -1.19850000
C        0.67540000      -1.99930000      -1.28610000
C        1.64590000      -2.67330000      -0.32640000
O        2.56580000      -3.35110000      -0.69260000
O        1.46420000      -2.48610000       1.00940000
C        0.38020000      -1.70640000       1.51650000
O        0.48420000      -0.35200000       1.25090000
H        0.92920000       1.99210000       0.11680000
H       -0.57600000       2.02420000      -0.82580000
H       -0.63540000       1.96360000       0.94860000
H       -1.13580000      -0.27440000      -0.01860000
H        0.16180000      -0.07380000      -2.09850000
H        1.67720000      -0.07280000      -1.20150000
H       -0.33560000      -2.39660000      -1.12460000
H        0.99070000      -2.31540000      -2.28120000
H       -0.57560000      -2.11510000       1.15530000
H        0.45490000      -1.83480000       2.59750000
