25
Properties=species:S:1:pos:R:3 pbc="F F F"
C       -0.00580000       1.61660000      -0.02710000
C       -0.10970000       0.08850000      -0.07270000
C        0.68490000      -0.52610000      -1.22680000
C        2.22640000      -0.57270000      -0.99400000
C        2.10330000      -2.07170000      -0.61420000
C        0.70130000      -2.09520000      -1.28760000
C       -0.40370000      -2.90080000      -0.66110000
C       -1.62740000      -3.28010000      -1.46170000
C       -0.62290000      -4.33660000      -1.07570000
H        1.03330000       1.94510000       0.08190000
H       -0.39740000       2.06440000      -0.94740000
H       -0.57370000       2.02980000       0.81250000
H        0.23630000      -0.32760000       0.88310000
H       -1.16370000      -0.20110000      -0.16680000
H        0.37310000      -0.04470000      -2.16070000
H        2.79070000      -0.42530000      -1.91900000
H        2.63210000       0.10240000      -0.23520000
H        2.85940000      -2.76010000      -0.99990000
H        2.03180000      -2.21660000       0.46840000
H        0.80820000      -2.40290000      -2.33520000
H       -0.57930000      -2.69040000       0.39070000
H       -2.59190000      -3.27990000      -0.96580000
H       -1.66510000      -2.97350000      -2.50210000
H        0.01440000      -4.73980000      -1.85620000
H       -0.90060000      -5.05800000      -0.31500000
