17
Properties=species:S:1:pos:R:3 pbc="F F F"
C       -0.08330000       1.55170000      -0.08080000
C        0.07500000       0.04990000      -0.02360000
C        1.37820000      -0.66870000      -0.22100000
N        2.61300000       0.01220000      -0.01190000
C        2.65250000       0.39800000       1.21460000
N        1.55250000       0.11130000       1.99760000
C        0.64220000      -0.65240000       1.19730000
C       -0.00640000      -1.79680000       1.83880000
O        0.18840000      -2.11380000       2.99240000
H        0.80970000       2.07020000       0.27170000
H       -0.26880000       1.86850000      -1.11180000
H       -0.92900000       1.87580000       0.53380000
H       -0.76020000      -0.50310000      -0.45040000
H        1.40730000      -1.54090000      -0.86610000
H        3.48160000       0.95440000       1.63900000
H        1.65250000      -0.18190000       2.96120000
H       -0.70490000      -2.36240000       1.18520000
