24
Properties=species:S:1:pos:R:3 pbc="F F F"
C        1.38460000       1.33890000       0.30460000
O        0.81210000       0.05880000       0.20040000
C        1.12250000      -0.58520000      -1.01710000
C        0.47300000      -1.98010000      -1.04590000
C        1.06970000      -2.85460000       0.06600000
C       -1.04780000      -1.84490000      -0.85080000
N        0.91970000      -2.55940000      -2.33070000
C        0.29530000      -3.75630000      -2.86820000
C        0.13420000      -2.44040000      -3.55090000
H        2.48420000       1.30090000       0.25050000
H        1.02790000       2.01230000      -0.49130000
H        1.09270000       1.75220000       1.27340000
H        0.75390000       0.01030000      -1.87020000
H        2.21160000      -0.69330000      -1.13730000
H        0.93230000      -2.37730000       1.03860000
H        0.58790000      -3.83740000       0.08730000
H        2.13940000      -3.00440000      -0.10640000
H       -1.50050000      -1.19050000      -1.60210000
H       -1.55260000      -2.81510000      -0.88550000
H       -1.24390000      -1.39810000       0.12600000
H        0.97660000      -4.50820000      -3.25850000
H       -0.58650000      -4.16140000      -2.37570000
H       -0.85330000      -1.98730000      -3.51130000
H        0.70000000      -2.20820000      -4.44950000
