18
Properties=species:S:1:pos:R:3 pbc="F F F"
C       -0.02420000       1.55960000       0.00620000
C        0.02230000       0.05030000       0.04610000
C       -1.30080000      -0.75480000       0.23240000
C       -0.63790000      -1.55030000       1.40330000
O       -0.52010000      -2.94520000       1.28510000
C        0.70310000      -0.80210000       1.18180000
C        1.55860000      -1.41260000       0.04980000
O        2.40620000      -2.25550000      -0.04120000
N        0.96160000      -0.58670000      -0.88840000
H        0.98430000       1.98090000       0.05220000
H       -0.49710000       1.91150000      -0.91860000
H       -0.60700000       1.95380000       0.84460000
H       -2.15890000      -0.15120000       0.53920000
H       -1.57740000      -1.36610000      -0.62960000
H       -1.07890000      -1.26730000       2.36880000
H       -1.38840000      -3.33710000       1.42270000
H        1.22120000      -0.38950000       2.04550000
H        0.88130000      -0.72600000      -1.88770000
