16
Properties=species:S:1:pos:R:3 pbc="F F F"
O        0.07420000       1.40390000       0.00490000
C        0.02770000       0.01290000      -0.16030000
C       -1.38290000      -0.49750000      -0.05330000
N       -2.38600000       0.30750000      -0.01770000
C       -3.58090000      -0.48900000       0.06300000
C       -3.88960000      -1.41190000      -1.09830000
C       -3.12200000      -1.95650000       0.07400000
N       -1.68500000      -1.84590000      -0.03890000
H       -0.85220000       1.69280000       0.00210000
H        0.43950000      -0.28850000      -1.13800000
H        0.65200000      -0.47960000       0.60330000
H       -4.39530000      -0.08600000       0.65420000
H       -4.92040000      -1.73460000      -1.19440000
H       -3.36340000      -1.25740000      -2.03470000
H       -3.51350000      -2.74700000       0.70230000
H       -1.08500000      -2.49740000       0.44300000
