16
Properties=species:S:1:pos:R:3 pbc="F F F"
C       -0.04280000       1.53500000      -0.10540000
C       -0.01570000       0.04170000       0.08450000
O        1.22010000      -0.64410000      -0.11480000
C        0.66250000      -0.65520000       1.21290000
C        1.45100000       0.05860000       2.29200000
C        0.11750000      -1.93180000       1.61540000
C       -0.33290000      -2.99260000       1.98040000
C       -0.84810000      -4.18950000       2.38590000
N       -1.28920000      -5.20680000       2.73300000
H        0.82620000       2.02630000       0.33450000
H       -0.05560000       1.76620000      -1.17550000
H       -0.95090000       1.95560000       0.33850000
H       -0.87130000      -0.48330000      -0.34380000
H        1.86030000       0.99690000       1.91710000
H        0.81480000       0.26500000       3.15770000
H        2.28220000      -0.57050000       2.62250000
