16
Properties=species:S:1:pos:R:3 pbc="F F F"
C       -0.02370000       1.53760000      -0.12780000
C        0.00850000       0.04190000       0.05750000
O        1.28290000      -0.61100000       0.01070000
C        0.54810000      -0.65770000       1.23540000
C        1.15790000       0.05530000       2.41850000
C        2.05650000      -0.84480000       3.24380000
O        2.19620000      -2.02930000       3.08620000
C        2.77720000      -0.14770000       4.33440000
N        3.32950000       0.41240000       5.18190000
H        0.75950000       2.04320000       0.44080000
H        0.11710000       1.78540000      -1.18470000
H       -0.99520000       1.93790000       0.18180000
H       -0.76730000      -0.49200000      -0.49540000
H        0.14380000      -1.64110000       1.47300000
H        1.74130000       0.92690000       2.10520000
H        0.38050000       0.43790000       3.09690000
