17
Properties=species:S:1:pos:R:3 pbc="F F F"
C       -0.00780000       1.46610000      -0.00310000
C        0.01030000       0.01490000       0.00930000
C        0.02380000      -1.19550000       0.01960000
C        0.03930000      -2.55420000       0.02960000
C        0.04290000      -3.76560000       0.04820000
C        0.09690000      -5.20610000       0.03340000
C        1.19910000      -5.81810000      -0.80750000
C       -0.47250000      -5.95480000       1.17610000
O       -1.18130000      -5.87190000      -0.05420000
H        1.00070000       1.87470000       0.12710000
H       -0.40300000       1.84960000      -0.95060000
H       -0.63430000       1.86130000       0.80450000
H        2.18050000      -5.49090000      -0.45170000
H        1.14510000      -6.90840000      -0.75760000
H        1.09500000      -5.50960000      -1.85150000
H       -0.05740000      -6.93290000       1.41870000
H       -0.90920000      -5.40780000       2.00950000
