22
Properties=species:S:1:pos:R:3 pbc="F F F"
C        2.47000000       1.79390000       0.38440000
C        1.23860000       1.53070000      -0.48830000
C        1.39290000       0.41360000      -1.49030000
C        2.26130000      -0.80690000      -1.32590000
C        2.51320000       0.12770000      -2.48540000
C        1.45690000      -0.03910000      -3.60980000
N        0.52780000      -1.14130000      -3.23300000
C        0.35400000       0.22280000      -2.66540000
C       -0.93260000       0.97500000      -2.80840000
H        2.69390000       0.94330000       1.03490000
H        3.35670000       1.99250000      -0.22730000
H        2.30630000       2.66570000       1.02490000
H        0.37810000       1.31580000       0.16160000
H        0.98410000       2.45630000      -1.02280000
H        3.00070000      -0.73620000      -0.53470000
H        1.86600000      -1.79930000      -1.49900000
H        3.44900000       0.65550000      -2.62040000
H        1.57890000       0.25590000      -4.64490000
H       -0.14770000      -1.22850000      -3.99270000
H       -1.70050000       0.58980000      -2.12640000
H       -0.80320000       2.04070000      -2.59390000
H       -1.31900000       0.88750000      -3.83000000
