21
Properties=species:S:1:pos:R:3 pbc="F F F"
C        0.09140000       1.48710000      -0.22030000
C        0.00330000       0.01140000       0.19540000
C       -1.39630000      -0.53610000       0.17430000
C       -2.08960000      -0.97910000      -1.10750000
C       -1.96280000      -1.96560000      -0.00260000
O       -1.36770000      -3.19370000      -0.18630000
C       -2.98910000      -1.72490000       1.10220000
O       -2.72180000      -2.53780000       2.23940000
C       -2.49300000      -0.25000000       1.21880000
H        1.12490000       1.84610000      -0.18720000
H       -0.28440000       1.62980000      -1.23870000
H       -0.50370000       2.12270000       0.44440000
H        0.62990000      -0.59660000      -0.46910000
H        0.42650000      -0.10590000       1.20300000
H       -3.05490000      -0.57010000      -1.40550000
H       -1.41230000      -1.16870000      -1.93590000
H       -1.41830000      -3.63290000       0.67440000
H       -4.04260000      -1.89570000       0.85650000
H       -1.94050000      -2.18610000       2.68100000
H       -2.10440000      -0.04260000       2.22260000
H       -3.22030000       0.52950000       0.96620000
