23
Properties=species:S:1:pos:R:3 pbc="F F F"
C       -0.00530000       1.54460000      -0.04660000
C       -0.00400000       0.01480000       0.00050000
C        0.69620000      -0.54610000       1.24220000
C        0.76020000      -2.07470000       1.27680000
O        1.45130000      -2.59860000       0.12130000
C        1.38200000      -2.60840000       2.55310000
C        0.52830000      -3.30630000       3.59760000
C        1.44710000      -4.10680000       2.72010000
O        0.87610000      -4.90670000       1.72930000
H        1.01600000       1.94220000      -0.05680000
H       -0.51370000       1.91470000      -0.94220000
H       -0.51470000       1.97070000       0.82520000
H       -1.03740000      -0.35530000      -0.02520000
H        0.48430000      -0.38910000      -0.89290000
H        1.72120000      -0.14840000       1.30270000
H        0.18650000      -0.20320000       2.15230000
H       -0.25040000      -2.48140000       1.17050000
H        2.37230000      -2.32000000       0.18450000
H        2.23190000      -2.03500000       2.91860000
H        0.78260000      -3.17790000       4.64380000
H       -0.53300000      -3.39590000       3.39150000
H        2.34240000      -4.52480000       3.18040000
H        1.16630000      -4.53870000       0.88220000
