19
Properties=species:S:1:pos:R:3 pbc="F F F"
C       -0.12280000       1.58920000       0.05900000
C        0.04080000       0.09410000      -0.00550000
O       -1.07490000      -0.55280000       0.54620000
C        0.69660000      -0.64340000      -1.16550000
C        1.65790000       0.07420000      -2.11520000
C        2.81440000       0.47520000      -1.22160000
C        2.64480000       0.06700000       0.03820000
C        1.35320000      -0.65420000       0.20990000
O        1.29400000      -1.81740000       0.99930000
H        0.76140000       2.10960000      -0.31260000
H       -0.98630000       1.89750000      -0.54010000
H       -0.30420000       1.90250000       1.09190000
H       -0.76040000      -1.41040000       0.86500000
H        0.16130000      -1.52110000      -1.51020000
H        1.98780000      -0.57740000      -2.93510000
H        1.19240000       0.94810000      -2.58990000
H        3.65520000       1.05700000      -1.58260000
H        3.33080000       0.24030000       0.86050000
H        1.39440000      -1.55380000       1.92200000
