18
Properties=species:S:1:pos:R:3 pbc="F F F"
C       -0.43250000       1.40160000      -0.01500000
C        0.03070000      -0.05010000      -0.01020000
C        1.32000000      -0.36170000      -0.88220000
C        2.15690000      -0.42850000       0.42350000
N        2.60280000       0.78930000       1.18750000
C        1.94150000      -0.04710000       2.23820000
C        2.32870000      -1.45110000       1.58810000
O        0.96740000      -1.94110000       1.51320000
C        0.84540000      -0.50460000       1.23360000
H        0.39710000       2.07500000       0.21300000
H       -0.83530000       1.66690000      -0.99840000
H       -1.22050000       1.56170000       0.72810000
H       -0.80640000      -0.72720000      -0.20040000
H        1.26810000      -1.31710000      -1.40660000
H        1.62740000       0.42060000      -1.57930000
H        3.61820000       0.79440000       1.30680000
H        1.89460000       0.24170000       3.29370000
H        3.11810000      -2.16490000       1.85070000
