20
Properties=species:S:1:pos:R:3 pbc="F F F"
N        0.01920000      -1.17240000      -0.00450000
C       -0.00610000      -0.01700000       0.00230000
C       -0.01500000       1.44360000       0.01080000
C        1.40550000       2.04780000      -0.00100000
C        1.38170000       3.55680000       0.00800000
C        0.77300000       4.50130000       1.09660000
C        1.38140000       5.44100000       0.01880000
C        2.62090000       4.50360000      -0.00120000
C        0.74770000       4.51370000      -1.05510000
H       -0.58050000       1.79320000      -0.86030000
H       -0.56170000       1.78320000       0.89770000
H        1.95970000       1.68050000       0.87030000
H        1.94090000       1.69060000      -0.88810000
H       -0.31680000       4.50970000       1.19380000
H        1.26050000       4.49440000       2.07600000
H        1.38080000       6.53070000       0.02500000
H        3.24740000       4.49500000       0.89550000
H        3.22610000       4.50530000      -0.91240000
H        1.21190000       4.51810000      -2.04570000
H       -0.34420000       4.52300000      -1.12640000
