19
Properties=species:S:1:pos:R:3 pbc="F F F"
C       -0.14180000       1.53520000       0.06680000
C        1.38160000       1.27360000       0.02290000
C        1.23720000       0.12840000       1.04890000
C        2.41370000      -0.83770000       0.74900000
C        2.16220000      -0.97200000      -0.76320000
O        2.94900000      -0.43220000      -1.87870000
C        1.72800000       0.17500000      -2.41520000
C        1.14310000       0.10270000      -0.99750000
C       -0.00790000      -0.00560000       0.02940000
H       -0.53230000       1.97840000       0.98760000
H       -0.59460000       2.00170000      -0.81200000
H        2.19410000       2.00160000      -0.01520000
H        1.00500000       0.37100000       2.08820000
H        3.36600000      -0.35540000       0.99190000
H        2.37160000      -1.79640000       1.27310000
H        1.83460000      -1.98630000      -1.03170000
H        1.91370000       1.16200000      -2.84850000
H        1.25700000      -0.48220000      -3.15810000
H       -0.80210000      -0.75370000       0.06000000
