19
Properties=species:S:1:pos:R:3 pbc="F F F"
C       -0.15580000       1.56220000       0.02680000
C        0.03650000       0.04380000       0.02380000
N        0.68420000      -0.44780000      -1.18110000
C        0.10250000      -0.69180000      -2.42260000
N        0.88180000      -1.08410000      -3.35460000
C        2.22440000      -1.14070000      -2.75460000
C        3.24270000      -0.28130000      -3.50640000
C        2.04960000      -0.69650000      -1.29490000
O        2.86890000      -0.56900000      -0.41470000
H        0.80920000       2.07050000      -0.05030000
H       -0.78380000       1.88650000      -0.80910000
H       -0.63790000       1.87920000       0.95650000
H        0.67840000      -0.25830000       0.85600000
H       -0.92450000      -0.46960000       0.13760000
H       -0.96780000      -0.54840000      -2.54060000
H        2.56430000      -2.18450000      -2.75690000
H        2.91070000       0.76010000      -3.55070000
H        4.20680000      -0.31770000      -2.99250000
H        3.36180000      -0.64720000      -4.52860000
