16
Properties=species:S:1:pos:R:3 pbc="F F F"
C        0.08560000       1.43260000       0.03900000
N        0.02490000      -0.01140000      -0.00720000
C       -0.01470000      -0.81860000      -1.14070000
C       -0.01750000      -2.10620000      -0.76700000
N        0.02960000      -2.12490000       0.64330000
C        0.03880000      -3.27540000       1.40260000
O        0.00770000      -4.38790000       0.93390000
C        0.06900000      -0.78940000       1.13710000
N        0.13360000      -0.30240000       2.31530000
H        1.10410000       1.78700000       0.23490000
H       -0.25790000       1.83490000      -0.91600000
H       -0.55880000       1.79470000       0.84300000
H       -0.04490000      -0.38680000      -2.12710000
H       -0.05270000      -3.02590000      -1.32060000
H        0.07720000      -3.06680000       2.48480000
H        0.14590000      -1.01030000       3.04170000
