21
Properties=species:S:1:pos:R:3 pbc="F F F"
C       -0.03110000       1.59800000      -0.02940000
N       -0.00930000       0.15800000       0.08400000
C       -1.25050000      -0.56470000       0.36020000
C       -0.43620000      -1.60670000       1.18270000
C       -0.16700000      -2.85620000       0.49410000
N        0.04550000      -3.85580000      -0.04740000
C        0.72940000      -0.53840000       1.17450000
C        2.11720000      -1.00290000       0.75320000
C        0.77470000       0.20900000       2.51410000
H        0.98790000       1.97800000      -0.15520000
H       -0.59860000       1.87950000      -0.92310000
H       -0.48790000       2.11270000       0.83490000
H       -1.96560000      -0.02180000       1.00010000
H       -1.77860000      -0.93500000      -0.52370000
H       -0.83360000      -1.82590000       2.17540000
H        2.07400000      -1.55690000      -0.18640000
H        2.77290000      -0.13680000       0.61090000
H        2.56940000      -1.64270000       1.51830000
H        1.17530000      -0.44210000       3.29760000
H        1.42480000       1.08710000       2.44780000
H       -0.21740000       0.54630000       2.83090000
