23
Properties=species:S:1:pos:R:3 pbc="F F F"
C       -0.28550000       1.40330000      -0.28780000
C        1.16600000       1.24650000       0.08940000
C        0.26630000       0.03320000       0.02320000
C       -0.14570000      -0.68810000       1.27620000
C       -1.36450000      -1.66140000       1.21100000
C       -0.57430000      -2.68650000       2.07460000
C        0.69690000      -1.87800000       1.78570000
C        1.93680000      -2.41770000       1.13020000
C        1.99160000      -1.86330000       2.53710000
H       -0.95180000       1.85670000       0.43910000
H       -0.52690000       1.64110000      -1.31790000
H        1.91630000       1.37780000      -0.68250000
H        1.47410000       1.59580000       1.06960000
H        0.41740000      -0.61900000      -0.83380000
H       -0.28780000       0.04280000       2.08330000
H       -2.31420000      -1.29620000       1.60830000
H       -1.52990000      -2.02480000       0.19250000
H       -0.86310000      -2.65440000       3.13040000
H       -0.58730000      -3.72870000       1.74350000
H        2.01870000      -3.49250000       0.99960000
H        2.39690000      -1.83460000       0.33910000
H        2.48680000      -0.90860000       2.68640000
H        2.11430000      -2.56150000       3.35970000
