17
Properties=species:S:1:pos:R:3 pbc="F F F"
C        0.15820000       1.52590000       0.20450000
C       -0.11000000       0.01810000       0.05980000
C        0.53830000      -0.74690000       1.19980000
C        1.19230000      -2.04520000       1.00480000
O        1.96140000      -0.84810000       1.15700000
C       -1.61770000      -0.24720000       0.09650000
N       -2.15140000      -0.78880000      -1.03560000
O       -2.28750000       0.00220000       1.08140000
H        1.23400000       1.70810000       0.26730000
H       -0.24020000       2.08230000      -0.64940000
H       -0.32140000       1.90420000       1.11100000
H        0.32410000      -0.34070000      -0.88080000
H        0.12450000      -0.51780000       2.18130000
H        1.25660000      -2.75150000       1.83100000
H        1.21890000      -2.49200000       0.01130000
H       -1.61210000      -0.93130000      -1.87070000
H       -3.14790000      -0.93220000      -1.07070000
