17
Properties=species:S:1:pos:R:3 pbc="F F F"
O        0.63710000       0.14280000      -0.47820000
C        0.62680000       1.33450000      -0.52760000
O        1.01490000       2.09960000       0.52520000
C        0.97980000       3.49450000       0.32830000
C        2.19480000       4.29440000       0.73680000
C        3.49940000       3.54310000       0.95950000
C        3.72730000       2.76950000      -0.36060000
O        2.81010000       3.29550000      -1.33950000
C        1.87210000       4.12320000      -0.72260000
H        0.30850000       1.93570000      -1.39640000
H        0.00540000       3.93690000       0.51770000
H        2.03470000       5.22830000       1.26190000
H        4.29750000       4.26780000       1.14290000
H        3.45710000       2.86290000       1.81370000
H        4.73990000       2.89220000      -0.75690000
H        3.53200000       1.70160000      -0.22810000
H        1.50220000       4.90550000      -1.37580000
