15
Properties=species:S:1:pos:R:3 pbc="F F F"
O       -0.66070000       0.72980000       0.76130000
C        0.15240000       0.99860000      -0.08470000
C        1.19840000       2.05050000       0.07660000
O        2.38140000       1.85700000      -0.73360000
C        1.53300000       2.92290000      -1.06570000
C        0.93300000       3.09710000      -2.48530000
C        1.41480000       4.55830000      -2.41650000
O        0.79460000       5.15000000      -1.27190000
C        1.98400000       4.37800000      -1.06670000
H        0.18990000       0.47950000      -1.06790000
H        1.36640000       2.40820000       1.09050000
H        1.48170000       2.48820000      -3.20840000
H       -0.14290000       2.96300000      -2.61150000
H        1.72010000       5.21540000      -3.22120000
H        2.82300000       4.83880000      -0.55970000
