19
Properties=species:S:1:pos:R:3 pbc="F F F"
C       -0.75830000       1.22710000      -0.12230000
C        0.04110000      -0.05290000       0.03760000
N        1.28970000      -0.13510000      -0.78460000
C        2.09340000      -0.57920000       0.39670000
C        2.88930000      -1.85160000       0.28550000
C        0.88120000      -0.26380000       1.31530000
O        1.55610000       0.94060000       1.78930000
C        2.70410000       0.64690000       1.06230000
N        3.81830000       1.21510000       1.03120000
H       -0.13270000       2.09470000       0.09790000
H       -1.12730000       1.31950000      -1.14850000
H       -1.62120000       1.23410000       0.55250000
H       -0.60590000      -0.93080000      -0.10260000
H        1.25280000      -0.83390000      -1.51830000
H        3.68340000      -1.72720000      -0.45830000
H        3.36430000      -2.10420000       1.23770000
H        2.25460000      -2.68950000      -0.02170000
H        0.50210000      -0.86000000       2.14420000
H        3.83850000       2.04130000       1.63190000
