19
Properties=species:S:1:pos:R:3 pbc="F F F"
N       -0.65840000       2.62090000       2.49000000
H       -0.65570000       3.23820000       1.67810000
H        0.25570000       2.71660000       2.92920000
H       -1.36450000       2.99420000       3.15140000
C       -0.80740000       1.17380000       2.03360000
C       -2.17230000       0.92160000       1.44170000
C       -2.24320000      -0.50410000       0.90740000
C       -1.22330000      -0.83320000      -0.20340000
O       -0.04910000      -0.21710000      -0.11960000
O       -1.48620000      -1.63340000      -1.06840000
C       -3.43770000       1.59540000       1.86770000
N       -2.83700000       1.89330000       0.54770000
H       -0.07110000       0.41990000       0.69390000
H       -0.70280000       0.59140000       2.95730000
H       -2.06910000      -1.21020000       1.73090000
H       -3.23380000      -0.71410000       0.50170000
H       -4.39440000       1.08010000       1.83250000
H       -3.39970000       2.36240000       2.64340000
H       -2.39510000       2.81050000       0.54310000
