20
Properties=species:S:1:pos:R:3 pbc="F F F"
C       -0.13610000       1.56210000      -0.05750000
C        0.02690000       0.04160000      -0.00360000
C        0.93700000      -0.56150000      -1.11600000
C        1.97930000      -1.23960000      -0.24220000
N        1.22610000      -1.91270000       0.92570000
C        2.45860000      -1.65210000       1.79180000
C        2.32910000      -0.34940000       0.98830000
O        3.05240000       0.83460000       1.05350000
C        0.80650000      -0.45110000       1.21200000
H        0.83830000       2.05920000      -0.02250000
H       -0.64380000       1.86760000      -0.97830000
H       -0.73090000       1.92860000       0.78630000
H       -0.95960000      -0.43430000      -0.01740000
H        0.41220000      -1.27500000      -1.75690000
H        1.38300000       0.20750000      -1.75530000
H        2.74640000      -1.86410000      -0.70610000
H        2.24330000      -1.62530000       2.86350000
H        3.29420000      -2.32360000       1.57080000
H        3.96660000       0.65310000       0.80840000
H        0.39090000      -0.28450000       2.20810000
