23
Properties=species:S:1:pos:R:3 pbc="F F F"
C       -0.77660000       1.51100000       0.04090000
C       -0.11390000       0.13470000       0.01860000
C       -1.10270000      -0.91330000      -0.50510000
C        1.26630000       0.04770000      -0.70970000
C        1.78830000      -0.83480000       0.45040000
O        3.06100000      -0.53310000       1.00420000
C        0.60010000      -0.36480000       1.33160000
C        0.99260000       0.69780000       2.36030000
O        1.76880000       0.14170000       3.40650000
H       -0.09830000       2.29150000       0.39630000
H       -1.10270000       1.79090000      -0.96760000
H       -1.66330000       1.51620000       0.68540000
H       -1.44400000      -0.65720000      -1.51490000
H       -0.65760000      -1.91280000      -0.54840000
H       -1.98560000      -0.97300000       0.14150000
H        1.27800000      -0.37310000      -1.71950000
H        1.78400000       1.01130000      -0.71740000
H        1.72290000      -1.90440000       0.21510000
H        3.74600000      -0.84460000       0.40540000
H        0.07920000      -1.16790000       1.86200000
H        1.52370000       1.53130000       1.87660000
H        0.09250000       1.11380000       2.82560000
H        2.56960000      -0.19050000       2.98170000
