17
Properties=species:S:1:pos:R:3 pbc="F F F"
O       -0.11780000      -0.05740000       0.05380000
C       -0.10360000       1.13780000       0.03070000
C       -1.18420000       2.23200000       0.14930000
C       -0.05760000       3.17940000       0.68950000
C        0.03120000       3.18130000       2.18580000
C        0.95060000       2.47640000       2.84410000
C        2.02020000       1.66630000       2.16700000
O        2.20330000       1.99550000       0.79430000
C        1.01790000       2.20920000       0.09830000
H       -1.56380000       2.53580000      -0.83150000
H       -2.02510000       2.01070000       0.80870000
H       -0.06860000       4.18940000       0.27330000
H       -0.71650000       3.75220000       2.73140000
H        0.95720000       2.45340000       3.93080000
H        2.99050000       1.84410000       2.64370000
H        1.80230000       0.59090000       2.27180000
H        1.29500000       2.50260000      -0.92080000
