19
Properties=species:S:1:pos:R:3 pbc="F F F"
O       -0.12130000       1.43320000       0.08410000
C        0.04680000       0.01880000      -0.10830000
C       -1.35480000      -0.55730000       0.00560000
O       -2.16530000      -0.05530000      -1.03990000
C       -1.55290000      -2.06670000       0.11720000
C       -0.93850000      -2.61620000       1.37520000
C       -2.25600000      -1.90810000       1.47320000
C       -2.04710000      -0.39710000       1.41800000
O       -1.28920000       0.13500000       2.48050000
H        0.71560000       1.87240000      -0.09180000
H        0.45740000      -0.19610000      -1.10430000
H        0.71530000      -0.39770000       0.65300000
H       -2.01770000       0.89900000      -1.05460000
H       -1.83320000      -2.68800000      -0.72400000
H       -0.98880000      -3.69640000       1.46690000
H       -0.05080000      -2.17610000       1.81750000
H       -3.14960000      -2.39990000       1.83540000
H       -2.99430000       0.13920000       1.27340000
H       -0.96240000       0.99110000       2.17640000
