14
Properties=species:S:1:pos:R:3 pbc="F F F"
C       -0.05140000       1.49640000       0.01060000
C        1.42300000       1.86770000      -0.00150000
C        2.17600000       0.75980000      -0.01470000
N        1.34330000      -0.37390000      -0.01290000
C        1.38470000      -1.74920000      -0.02060000
C        0.06290000      -2.13010000      -0.00990000
N       -0.78490000      -1.03570000       0.00400000
C        0.02140000      -0.00440000       0.00180000
H       -0.56850000       1.88410000       0.89670000
H       -0.58520000       1.89360000      -0.86130000
H        1.79610000       2.88060000       0.00040000
H        3.25010000       0.64970000      -0.02560000
H        2.30480000      -2.30820000      -0.03240000
H       -0.32780000      -3.13650000      -0.01150000
