14
Properties=species:S:1:pos:R:3 pbc="F F F"
N        0.27060000       0.94460000      -0.88930000
C        0.16510000       0.11900000       0.05340000
N       -1.03800000      -0.41400000       0.50470000
C       -2.31290000      -0.23660000      -0.01720000
O       -2.62100000       0.44320000      -0.95490000
O        1.14390000      -0.44420000       0.85530000
C        2.46130000       0.04680000       0.71320000
C        3.14320000      -0.46100000      -0.48790000
N        3.69740000      -0.85500000      -1.42120000
H        1.22650000       1.19140000      -1.12430000
H       -0.95290000      -1.03600000       1.29420000
H       -3.03720000      -0.83080000       0.57580000
H        2.47760000       1.14370000       0.70190000
H        3.00290000      -0.29440000       1.59880000
