20
Properties=species:S:1:pos:R:3 pbc="F F F"
C        0.29920000       1.49480000      -0.06910000
C        0.04540000       0.02650000      -0.05820000
N       -1.05120000      -0.55330000       0.22240000
C       -0.82870000      -1.99310000       0.10280000
C       -1.26750000      -2.86920000       1.31400000
C       -1.90580000      -3.88240000       0.32680000
C       -1.84690000      -2.78590000      -0.76980000
C        0.66260000      -2.10770000      -0.31650000
O        1.12100000      -0.74260000      -0.38750000
H        1.09930000       1.74610000       0.63430000
H        0.62880000       1.81490000      -1.06260000
H       -0.61080000       2.02720000       0.20480000
H       -0.47690000      -3.22600000       1.98060000
H       -2.01720000      -2.33840000       1.90540000
H       -1.24280000      -4.72470000       0.10880000
H       -2.88990000      -4.27840000       0.58470000
H       -2.78310000      -2.22820000      -0.84890000
H       -1.52060000      -3.07590000      -1.77290000
H        1.28090000      -2.63840000       0.41480000
H        0.80400000      -2.56750000      -1.30000000
