23
Properties=species:S:1:pos:R:3 pbc="F F F"
C        0.09430000       1.66450000      -0.00950000
C        0.04470000       0.14070000      -0.00330000
C        1.00000000      -0.57150000      -1.00070000
O        1.61250000      -1.33500000       0.05700000
C        0.93070000      -0.56080000       1.06320000
C       -1.36190000      -0.45700000      -0.04750000
C       -2.44680000      -0.06580000       0.99960000
C       -3.51110000      -0.21570000      -0.12080000
C       -2.37410000      -0.07670000      -1.16880000
H        1.13020000       2.01660000       0.02340000
H       -0.36540000       2.08150000      -0.91160000
H       -0.42470000       2.09060000       0.85550000
H        0.53210000      -1.21430000      -1.75630000
H        1.72130000       0.09400000      -1.49560000
H        1.61750000       0.11010000       1.59850000
H        0.41300000      -1.19590000       1.79240000
H       -1.25490000      -1.54890000      -0.03840000
H       -2.54390000      -0.69240000       1.88970000
H       -2.35290000       0.97650000       1.31840000
H       -3.94810000      -1.21820000      -0.13040000
H       -4.32140000       0.51610000      -0.15160000
H       -2.25860000       0.96240000      -1.49090000
H       -2.41150000      -0.71220000      -2.05700000
