18
Properties=species:S:1:pos:R:3 pbc="F F F"
C       -0.16220000       1.59200000       0.03680000
C        0.05200000       0.08350000      -0.02300000
C        0.85740000      -0.49340000      -1.18570000
C        2.35200000      -0.06820000      -1.17710000
C        2.60000000      -1.37550000      -0.44580000
C        1.61180000      -1.64170000       0.65080000
N        1.24670000      -1.92550000      -0.76420000
C        0.80500000      -0.49760000       1.18130000
O        0.72670000      -0.13160000       2.32730000
H        0.78200000       2.13680000      -0.06040000
H       -0.83280000       1.93210000      -0.75740000
H       -0.60010000       1.85950000       1.00220000
H       -0.92430000      -0.42630000      -0.02120000
H        0.34870000      -0.47710000      -2.14810000
H        2.78340000      -0.09330000      -2.17980000
H        2.63320000       0.86970000      -0.69040000
H        3.49520000      -1.98670000      -0.51090000
H        1.79150000      -2.50140000       1.28610000
