23
Properties=species:S:1:pos:R:3 pbc="F F F"
C        0.08250000       1.59030000      -0.00070000
C        0.01990000       0.07770000       0.03160000
C       -1.37580000      -0.54510000       0.37560000
C       -0.76520000      -1.25560000       1.62040000
C        0.64540000      -0.80740000       1.18020000
C        1.30520000      -1.70790000       0.09690000
C        0.87050000      -0.70480000      -1.01100000
C        0.23900000      -1.23770000      -2.28150000
O        1.26330000      -1.88210000      -3.03030000
H        1.11800000       1.94700000      -0.03980000
H       -0.43920000       1.99020000      -0.87980000
H       -0.38930000       2.02890000       0.88640000
H       -2.13930000       0.20120000       0.61090000
H       -1.79220000      -1.21440000      -0.38130000
H       -1.08440000      -0.79590000       2.55990000
H       -0.92410000      -2.33560000       1.69980000
H        1.31450000      -0.39720000       1.93920000
H        2.38320000      -1.85120000       0.19180000
H        0.84170000      -2.69640000       0.00870000
H        1.72490000      -0.08550000      -1.30760000
H       -0.56930000      -1.94600000      -2.04150000
H       -0.21140000      -0.40860000      -2.85350000
H        0.86000000      -2.28770000      -3.80330000
