15
Properties=species:S:1:pos:R:3 pbc="F F F"
O        0.22620000       0.06210000      -0.12370000
C        0.10090000       1.24160000      -0.08130000
O       -1.02810000       1.91920000      -0.39440000
C       -0.85480000       3.31380000      -0.15220000
C        0.66510000       3.45700000       0.10460000
O        1.07790000       2.10770000       0.31410000
C        1.40270000       4.07320000      -1.06550000
C        2.61010000       3.47470000      -1.64250000
O        1.33400000       3.34400000      -2.28510000
H       -1.18730000       3.86690000      -1.03290000
H       -1.45670000       3.60490000       0.71380000
H        0.87720000       4.02640000       1.01450000
H        1.24880000       5.15020000      -1.16270000
H        3.32440000       4.11330000      -2.15850000
H        3.00420000       2.55780000      -1.21420000
