15
Properties=species:S:1:pos:R:3 pbc="F F F"
O        0.11610000       1.38350000      -0.05220000
C        0.02110000      -0.01020000      -0.04360000
C       -1.40000000      -0.50940000      -0.01470000
N       -2.34260000       0.38360000      -0.00080000
C       -3.66830000      -0.03320000       0.02580000
N       -4.71510000       0.68730000       0.04090000
N       -3.83340000      -1.43710000       0.03700000
C       -2.78330000      -2.27440000       0.01990000
N       -1.54600000      -1.88250000      -0.00620000
H       -0.79770000       1.70750000      -0.03620000
H        0.50610000      -0.45130000      -0.92960000
H        0.53830000      -0.44300000       0.82820000
H       -4.44700000       1.66960000       0.03070000
H       -4.78510000      -1.77590000       0.05640000
H       -3.01570000      -3.33710000       0.02940000
