19
Properties=species:S:1:pos:R:3 pbc="F F F"
N       -0.08980000      -1.16120000       0.15100000
C       -0.05960000      -0.00590000       0.14570000
C        0.01850000       1.45380000       0.13280000
C        1.44710000       1.94710000      -0.09670000
C        2.44570000       1.81010000       1.07870000
C        2.63980000       3.34700000       0.97570000
N        1.62840000       3.45440000      -0.12630000
C        2.24410000       3.34620000      -1.48950000
C        2.02760000       1.80920000      -1.52550000
H       -0.63890000       1.84180000      -0.65340000
H       -0.35980000       1.84230000       1.08510000
H        1.99570000       1.46710000       2.01330000
H        3.32480000       1.19530000       0.87500000
H        2.33680000       3.91170000       1.86200000
H        3.64200000       3.67940000       0.68500000
H        1.67890000       3.91040000      -2.23680000
H        3.28700000       3.67850000      -1.52720000
H        2.92630000       1.19440000      -1.60690000
H        1.30760000       1.46570000      -2.27210000
