20
Properties=species:S:1:pos:R:3 pbc="F F F"
C       -0.53990000       1.07760000       0.29380000
O       -0.21250000      -0.29040000       0.53690000
C        1.04310000      -0.52640000       0.97330000
N        1.88980000       0.39480000       1.15360000
C        1.24640000      -2.01800000       1.20220000
O        2.62020000      -2.22850000       1.44450000
C        0.35710000      -2.51830000       2.35600000
C        0.40250000      -4.03010000       2.53800000
O        1.73680000      -4.39970000       2.90820000
H        0.11920000       1.50350000      -0.46780000
H       -1.57550000       1.08000000      -0.04970000
H       -0.43590000       1.67040000       1.20700000
H        2.75830000      -0.03200000       1.47710000
H        0.92730000      -2.53180000       0.27810000
H        2.69240000      -3.05710000       1.94040000
H        0.67610000      -2.03130000       3.28510000
H       -0.67670000      -2.21910000       2.15990000
H       -0.30630000      -4.33800000       3.31960000
H        0.11010000      -4.52910000       1.60200000
H        1.82460000      -5.35550000       2.84980000
