20
Properties=species:S:1:pos:R:3 pbc="F F F"
C       -0.05270000       1.52520000       0.00700000
C        0.00950000       0.00610000       0.00310000
C        1.34760000      -0.68740000      -0.24400000
C        0.74340000      -0.72210000       1.12150000
C        1.32470000      -0.10680000       2.40340000
C        1.14460000      -1.49360000       3.09150000
C        0.29500000      -1.97880000       1.87910000
C       -1.16580000      -0.64980000      -0.51110000
N       -2.11990000      -1.17430000      -0.90450000
H        0.86400000       1.93900000       0.43510000
H       -0.16160000       1.91630000      -1.00900000
H       -0.89840000       1.88440000       0.60120000
H        1.34340000      -1.59880000      -0.83240000
H        2.19480000      -0.03250000      -0.42470000
H        2.34480000       0.28070000       2.33940000
H        0.68460000       0.66930000       2.83360000
H        2.08720000      -2.03680000       3.18730000
H        0.64590000      -1.48960000       4.06220000
H       -0.78000000      -1.99020000       2.07970000
H        0.57270000      -2.93820000       1.43600000
