15
Properties=species:S:1:pos:R:3 pbc="F F F"
C       -0.00720000       1.56410000      -0.01350000
O        1.38690000       1.94180000      -0.02880000
C        2.10310000       0.71730000      -0.00260000
C        1.26790000      -0.21000000      -0.88880000
C        0.04310000       0.02500000       0.02170000
C        0.65770000      -0.36550000       1.37900000
O        2.01330000       0.12380000       1.28300000
H       -0.49490000       1.99490000       0.86870000
H       -0.50230000       1.94980000      -0.91380000
H        3.14890000       0.91190000      -0.23220000
H        1.14430000       0.16260000      -1.90730000
H        1.62780000      -1.24050000      -0.89470000
H       -0.89000000      -0.47810000      -0.23000000
H        0.15410000       0.11150000       2.22790000
H        0.66950000      -1.45100000       1.54050000
