20
Properties=species:S:1:pos:R:3 pbc="F F F"
C        0.12720000       1.47790000       0.25370000
C       -0.06870000      -0.01350000      -0.00640000
O       -1.43790000      -0.30720000      -0.33210000
C        0.70960000      -0.51510000      -1.22220000
O        0.21790000       0.08670000      -2.40210000
C        2.27290000      -0.43190000      -1.21550000
C        2.32020000      -1.95430000      -1.38090000
N        1.62670000      -2.51410000      -0.19320000
C        0.83930000      -2.05160000      -1.36280000
H        1.15990000       1.69320000       0.54370000
H       -0.10900000       2.05520000      -0.64400000
H       -0.51940000       1.81620000       1.07210000
H        0.24500000      -0.60040000       0.86570000
H       -2.00260000       0.12730000       0.31360000
H       -0.74520000       0.05710000      -2.31560000
H        2.60740000       0.11630000      -2.09750000
H        2.75540000      -0.04130000      -0.31610000
H        3.05300000      -2.54060000      -1.92070000
H        1.68350000      -3.53030000      -0.25690000
H        0.16560000      -2.71200000      -1.89450000
