21
Properties=species:S:1:pos:R:3 pbc="F F F"
C        0.53680000       1.76040000      -0.64720000
C        0.53630000       0.26170000      -0.43100000
C        1.76780000      -0.57810000      -0.35510000
O        2.82520000       0.08270000       0.35330000
C        2.06080000      -0.02130000       1.61070000
C        2.68720000      -1.10130000       2.48440000
C        2.03970000       1.32840000       2.32990000
O        3.36040000       1.81920000       2.48910000
C        0.83640000      -0.52740000       0.84060000
H        1.49560000       2.20030000      -0.36780000
H        0.37050000       1.97940000      -1.70750000
H       -0.25480000       2.25860000      -0.07790000
H       -0.25050000      -0.25560000      -0.97990000
H        2.05010000      -1.37330000      -1.03620000
H        3.65630000      -0.75790000       2.85380000
H        2.04290000      -1.31110000       3.34590000
H        2.82390000      -2.02650000       1.91940000
H        1.40870000       2.04680000       1.79530000
H        1.62350000       1.20460000       3.33570000
H        3.75760000       1.79860000       1.60950000
H        0.15830000      -1.28210000       1.21800000
