25
Properties=species:S:1:pos:R:3 pbc="F F F"
C       -0.04490000       1.60910000       0.06490000
C       -0.01100000       0.08010000       0.18180000
C       -1.39670000      -0.54860000       0.05700000
C       -2.03160000      -0.65510000      -1.36810000
C       -1.22680000      -1.97250000      -1.54500000
C       -1.49630000      -2.11670000      -0.01400000
C       -0.68130000      -3.02780000       0.87500000
C       -3.03110000      -2.30310000      -0.00830000
C       -3.43650000      -1.19380000      -1.03600000
H        0.95440000       2.03900000       0.18610000
H       -0.42760000       1.92660000      -0.91080000
H       -0.69230000       2.04960000       0.83150000
H        0.67730000      -0.32260000      -0.56970000
H        0.41400000      -0.19470000       1.15650000
H       -2.05230000      -0.09150000       0.81160000
H       -1.96600000       0.16000000      -2.09030000
H       -1.64240000      -2.73830000      -2.20860000
H       -0.17430000      -1.81730000      -1.78550000
H        0.38990000      -2.81030000       0.80760000
H       -0.97680000      -2.92440000       1.92610000
H       -0.82410000      -4.07850000       0.59600000
H       -3.32150000      -3.30780000      -0.33270000
H       -3.45970000      -2.13760000       0.98550000
H       -4.08330000      -0.42810000      -0.59740000
H       -3.94590000      -1.60040000      -1.91470000
