21
Properties=species:S:1:pos:R:3 pbc="F F F"
C       -0.12190000       1.50510000       0.00010000
C       -0.01290000       0.01130000       0.02390000
C       -0.05520000      -0.93110000      -1.16340000
C        1.17050000      -1.84270000      -1.21230000
C        1.89940000      -1.54960000       0.12910000
C        0.81780000      -0.88610000       0.99350000
C       -0.43430000      -1.81660000       1.15870000
C       -1.05800000      -1.07920000      -0.02180000
O       -2.41830000      -0.90250000      -0.22220000
H        0.82190000       1.97550000      -0.30090000
H       -0.89390000       1.82350000      -0.70750000
H       -0.39240000       1.90450000       0.98450000
H       -0.49310000      -0.55460000      -2.08260000
H        0.89230000      -2.89920000      -1.29900000
H        1.80160000      -1.61200000      -2.07620000
H        2.31330000      -2.45040000       0.59350000
H        2.73010000      -0.85280000      -0.03210000
H        1.18290000      -0.42720000       1.91320000
H       -0.27290000      -2.89930000       1.08250000
H       -0.98040000      -1.59920000       2.08050000
H       -2.74780000      -1.64200000      -0.74480000
