19
Properties=species:S:1:pos:R:3 pbc="F F F"
C       -0.20230000       1.51400000       0.10060000
C        0.02170000       0.00900000      -0.00500000
O        0.87440000      -0.30420000      -1.13750000
C        2.10470000      -0.89840000      -0.70220000
C        1.72370000      -1.61410000       0.60150000
O        2.71370000      -1.76430000       1.60100000
C        2.20760000      -1.21440000       2.82590000
C        1.02310000      -0.36420000       2.41940000
C        0.74410000      -0.61230000       1.14710000
H        0.74190000       2.03310000       0.28580000
H       -0.63490000       1.89390000      -0.82870000
H       -0.89220000       1.74090000       0.92040000
H       -0.94150000      -0.48740000      -0.19230000
H        2.45200000      -1.55300000      -1.50550000
H        2.87610000      -0.14280000      -0.49220000
H        1.25770000      -2.58660000       0.37040000
H        1.93760000      -2.02370000       3.52480000
H        2.99910000      -0.62180000       3.30380000
H        0.55940000       0.35940000       3.07770000
