18
Properties=species:S:1:pos:R:3 pbc="F F F"
O       -0.16200000      -0.01920000       0.30240000
C       -0.05270000       1.16920000       0.11670000
C       -1.20510000       2.17890000      -0.00120000
C       -0.53610000       3.56600000      -0.02810000
C        0.94080000       3.24600000      -0.13940000
C        1.20580000       1.94040000      -0.04360000
N       -0.98150000       4.37780000      -1.16020000
C       -2.16350000       5.20520000      -0.93100000
C       -0.81300000       5.82310000      -1.02320000
H       -1.72830000       2.00310000      -0.94650000
H       -1.92380000       2.03950000       0.80940000
H       -0.71380000       4.09810000       0.92660000
H        1.67360000       4.03480000      -0.27290000
H        2.17830000       1.46530000      -0.06760000
H       -2.86040000       5.27120000      -1.76090000
H       -2.62700000       5.17070000       0.05370000
H       -0.37910000       6.20360000      -0.09940000
H       -0.50440000       6.34970000      -1.92130000
