19
Properties=species:S:1:pos:R:3 pbc="F F F"
C       -0.07820000       1.51870000       0.01370000
C        0.05870000      -0.00160000       0.04400000
C        0.99210000      -0.59160000      -1.07640000
C        2.02300000      -1.34560000      -0.20790000
O        3.09480000      -1.97350000      -0.81050000
C        1.09090000      -2.02400000       0.87300000
C        0.78770000      -0.55490000       1.29820000
C        2.26020000      -0.31050000       0.91210000
O        3.20070000       0.26560000       1.36960000
H        0.89950000       2.00810000       0.08340000
H       -0.55450000       1.85100000      -0.91460000
H       -0.68900000       1.87540000       0.84980000
H       -0.93630000      -0.45470000      -0.02060000
H        0.46250000      -1.27330000      -1.75140000
H        1.46750000       0.18710000      -1.68050000
H        2.79880000      -2.38180000      -1.63080000
H        0.24600000      -2.60210000       0.49000000
H        1.65570000      -2.59140000       1.61410000
H        0.39610000      -0.29580000       2.27880000
