17
Properties=species:S:1:pos:R:3 pbc="F F F"
C       -0.16210000       1.42140000       0.09350000
C       -0.05770000      -0.02900000       0.03050000
C        0.02690000      -1.22960000      -0.01290000
C        0.10910000      -2.68960000      -0.09640000
C        0.77530000      -3.34530000       1.15090000
N       -0.38140000      -3.61620000       1.98330000
C       -1.53430000      -3.74460000       1.22320000
O       -2.61660000      -4.12840000       1.60120000
N       -1.19860000      -3.35180000      -0.07480000
H        0.56070000       1.83940000       0.80250000
H        0.02800000       1.87790000      -0.88400000
H       -1.16140000       1.73090000       0.41790000
H        0.66050000      -2.96880000      -1.00050000
H        1.30390000      -4.26090000       0.85050000
H        1.48340000      -2.66640000       1.63010000
H       -0.31160000      -4.18110000       2.81390000
H       -1.95040000      -2.95890000      -0.62120000
