19
Properties=species:S:1:pos:R:3 pbc="F F F"
C       -0.98770000       1.45120000       0.19800000
C       -0.21030000       0.15040000       0.00780000
C       -1.11860000      -1.07860000       0.15920000
C        0.73930000       0.06560000      -1.23500000
C        1.93940000      -0.37760000      -0.32590000
C        3.22950000       0.25050000      -0.48090000
C        4.28990000       0.80460000      -0.60040000
C        1.04890000       0.02760000       0.89070000
O        1.27790000       0.25410000       2.03930000
H       -0.33880000       2.32540000       0.08830000
H       -1.79350000       1.53050000      -0.53990000
H       -1.43410000       1.48860000       1.19650000
H       -1.91120000      -1.05510000      -0.59650000
H       -0.56560000      -2.01550000       0.03520000
H       -1.58760000      -1.09280000       1.14780000
H        0.45490000      -0.64740000      -2.01020000
H        0.92190000       1.04080000      -1.68920000
H        2.04000000      -1.47050000      -0.32750000
H        5.23030000       1.28650000      -0.70330000
