21
Properties=species:S:1:pos:R:3 pbc="F F F"
C        2.22240000       0.03130000      -0.95140000
C        1.24430000      -0.85680000      -0.21170000
C        1.67950000      -1.76230000       0.91400000
C        0.75800000      -0.59490000       1.19810000
C        1.29120000       0.56360000       2.00860000
O        1.23340000       0.19850000       3.38530000
C       -0.67910000      -0.91020000       1.51800000
C       -1.79720000      -0.43040000       0.69320000
O       -1.37200000      -1.79580000       0.63700000
H        3.03660000       0.38030000      -0.31000000
H        2.67960000      -0.52000000      -1.78050000
H        1.72910000       0.91330000      -1.37590000
H        0.47340000      -1.28870000      -0.84410000
H        1.26120000      -2.76170000       0.95840000
H        2.70260000      -1.68230000       1.26830000
H        2.32260000       0.79630000       1.71020000
H        0.68190000       1.46250000       1.81910000
H        1.45990000       0.97240000       3.90940000
H       -0.87120000      -1.09540000       2.57400000
H       -2.77660000      -0.26700000       1.14020000
H       -1.58660000       0.15540000      -0.20060000
