21
Properties=species:S:1:pos:R:3 pbc="F F F"
C       -0.05410000       1.53880000      -0.00070000
C        0.06710000       0.01560000      -0.02240000
O       -1.22730000      -0.55910000      -0.19750000
C        1.02590000      -0.56370000      -1.10620000
C        1.98810000      -1.35990000      -0.19790000
C        2.27710000      -0.34220000       0.94360000
C        0.76180000      -0.58220000       1.22730000
O        0.09480000      -0.21770000       2.39830000
C        1.00610000      -2.05570000       0.78680000
H        0.91830000       2.03260000       0.07730000
H       -0.54130000       1.87920000      -0.91890000
H       -0.66130000       1.85810000       0.85250000
H       -1.70710000      -0.40340000       0.62530000
H        0.47060000      -1.19710000      -1.80160000
H        1.53620000       0.21910000      -1.67470000
H        2.79430000      -1.91240000      -0.67780000
H        2.91350000      -0.76200000       1.72780000
H        2.61910000       0.66160000       0.68010000
H        0.46630000      -0.71210000       3.13520000
H        0.15860000      -2.60900000       0.38060000
H        1.52700000      -2.63630000       1.55410000
