17
Properties=species:S:1:pos:R:3 pbc="F F F"
O        0.11720000       1.32170000       0.01590000
C       -0.05480000      -0.06950000      -0.05760000
C       -0.40250000      -0.91980000       1.12250000
C       -1.30290000      -0.14910000       2.09720000
C       -2.38320000       0.02380000       0.96980000
O       -3.51670000      -0.76020000       1.21200000
C       -2.81870000       1.43720000       0.62940000
O       -3.99250000       1.73200000       0.59080000
C       -1.41790000      -0.67240000      -0.02290000
H        0.96160000       1.49550000       0.44620000
H        0.60470000      -0.55680000      -0.77700000
H        0.15060000      -1.81900000       1.36670000
H       -1.73230000      -0.77600000       2.87850000
H       -0.87630000       0.75690000       2.53810000
H       -4.27030000      -0.16290000       1.06930000
H       -2.01870000       2.16510000       0.42140000
H       -1.78220000      -1.34270000      -0.79220000
