19
Properties=species:S:1:pos:R:3 pbc="F F F"
C        0.04700000       1.42160000       0.05620000
O       -0.07790000       0.01910000      -0.02180000
C        0.61510000      -0.56480000      -1.12140000
C        2.11900000      -0.72080000      -0.83630000
C       -0.00300000      -1.85660000      -1.41120000
C       -0.48420000      -2.93370000      -1.68170000
C       -1.02730000      -4.14520000      -1.97610000
C       -1.50970000      -5.22360000      -2.23930000
C       -2.08880000      -6.51720000      -2.55290000
H        1.07760000       1.74770000       0.25920000
H       -0.29470000       1.91210000      -0.86880000
H       -0.58790000       1.74920000       0.88280000
H        0.48930000       0.08220000      -2.00740000
H        2.26510000      -1.34920000       0.04540000
H        2.62010000      -1.18700000      -1.68890000
H        2.58060000       0.25440000      -0.65840000
H       -1.59590000      -6.97110000      -3.42020000
H       -1.98720000      -7.21190000      -1.71140000
H       -3.15610000      -6.42870000      -2.78550000
