15
Properties=species:S:1:pos:R:3 pbc="F F F"
C       -0.06240000       1.36850000       0.10360000
O        0.00980000      -0.06030000      -0.00190000
C        0.63740000      -0.51480000      -1.10370000
O        1.11420000       0.19150000      -1.95740000
C        0.66160000      -1.95830000      -1.12400000
C        0.71680000      -3.15800000      -1.20270000
C        0.77190000      -4.61700000      -1.27740000
C        1.45250000      -5.12330000      -2.46950000
C        2.00850000      -5.55110000      -3.44300000
H        0.93970000       1.80390000       0.12830000
H       -0.60770000       1.79010000      -0.74460000
H       -0.59020000       1.56700000       1.03600000
H        1.26940000      -5.00050000      -0.37570000
H       -0.25210000      -5.01380000      -1.23880000
H        2.50190000      -5.92190000      -4.30720000
