16
Properties=species:S:1:pos:R:3 pbc="F F F"
O        0.01390000       1.41440000       0.00960000
C        0.03950000      -0.00340000       0.00170000
C       -1.40260000      -0.49260000       0.01270000
C       -1.49560000      -2.01640000       0.00550000
C       -2.92360000      -2.53460000       0.01630000
O       -3.89710000      -1.81420000       0.02970000
C       -3.05320000      -3.98510000       0.00960000
C       -3.14120000      -5.18560000       0.00400000
H        0.92110000       1.73280000       0.00240000
H        0.55850000      -0.38900000      -0.89200000
H        0.57520000      -0.39850000       0.88130000
H       -1.91110000      -0.09130000       0.89480000
H       -1.92750000      -0.08200000      -0.85530000
H       -0.99550000      -2.44910000      -0.87290000
H       -0.97900000      -2.45840000       0.86960000
H       -3.23860000      -6.24420000      -0.00040000
