16
Properties=species:S:1:pos:R:3 pbc="F F F"
O       -0.24690000       1.35940000       0.04120000
N       -0.03200000      -0.06060000       0.06520000
C       -1.14840000      -0.65630000       0.14910000
C       -1.50730000      -2.08380000       0.00950000
C       -2.90400000      -2.23950000       0.64330000
C       -3.28980000      -0.89320000       1.26160000
C       -2.61080000      -0.24640000       0.02310000
O       -2.97920000       0.99580000      -0.41960000
C       -2.78610000      -1.67130000      -0.73190000
H        0.63120000       1.69130000      -0.16880000
H       -0.85730000      -2.92200000      -0.19270000
H       -3.25300000      -3.22480000       0.92210000
H       -4.37140000      -0.73910000       1.22510000
H       -2.89790000      -0.62230000       2.24790000
H       -2.16520000       1.50080000      -0.55610000
H       -3.13570000      -1.95460000      -1.71290000
