17
Properties=species:S:1:pos:R:3 pbc="F F F"
O        0.15520000       1.33050000       0.19940000
C       -0.04660000      -0.07410000       0.03920000
C       -1.54210000      -0.36280000      -0.14340000
C       -1.77520000      -0.48150000      -1.65180000
O       -2.82510000      -1.28720000      -2.08420000
C       -1.29550000       0.64540000      -2.50020000
C       -0.42950000      -0.62080000      -2.33500000
C        0.61930000      -0.53520000      -1.28460000
O        1.79880000      -0.77010000      -1.39500000
H        1.10740000       1.48410000       0.17730000
H        0.38960000      -0.62470000       0.88210000
H       -1.79660000      -1.32480000       0.31150000
H       -2.15200000       0.41370000       0.32870000
H       -3.63830000      -0.77300000      -2.03320000
H       -1.74420000       0.73920000      -3.48300000
H       -0.96440000       1.56650000      -2.03560000
H       -0.27170000      -1.24400000      -3.20530000
