18
Properties=species:S:1:pos:R:3 pbc="F F F"
C        0.04300000       1.45760000      -0.05750000
C       -0.03330000      -0.04260000      -0.04020000
C        0.07560000      -0.85120000       1.20870000
C       -0.24540000      -2.30320000       0.81950000
C       -0.51920000      -2.20780000      -0.68240000
C        0.88690000      -2.21470000      -0.16330000
N        1.22670000      -0.78790000       0.24420000
C       -0.89800000      -0.78880000      -1.05060000
O       -2.27550000      -0.47750000      -0.94950000
H        0.61930000       1.83370000       0.79150000
H        0.52480000       1.81070000      -0.97530000
H       -0.96510000       1.88200000      -0.01660000
H        0.15610000      -0.44710000       2.21160000
H       -0.56350000      -3.11230000       1.46070000
H       -0.91180000      -3.06600000      -1.21220000
H        1.67640000      -2.90170000      -0.43570000
H       -0.61660000      -0.54230000      -2.07980000
H       -2.56010000      -0.73390000      -0.06420000
