18
Properties=species:S:1:pos:R:3 pbc="F F F"
C       -0.21190000       1.32780000       0.09890000
C        0.07140000      -0.13950000       0.03180000
C        0.66010000      -0.98660000      -1.13160000
C        0.12490000      -1.93930000      -0.03760000
C       -0.14670000      -3.41420000      -0.04150000
O       -0.85820000      -3.79610000       1.12030000
C        0.79360000      -1.06150000       1.04820000
O       -1.09040000      -1.07750000       0.06730000
H        0.72320000       1.89530000       0.06030000
H       -0.84030000       1.63750000      -0.74160000
H       -0.72920000       1.57650000       1.03050000
H        0.08030000      -0.96790000      -2.05590000
H        1.73950000      -0.94930000      -1.29990000
H       -0.69510000      -3.67460000      -0.96140000
H        0.79640000      -3.97140000      -0.04420000
H       -1.57930000      -3.16170000       1.21410000
H        1.88590000      -1.03320000       1.08310000
H        0.33460000      -1.11580000       2.03560000
