18
Properties=species:S:1:pos:R:3 pbc="F F F"
C       -0.22690000       1.62340000       0.13290000
C       -0.10980000       0.09900000       0.03790000
C        0.85270000      -0.50580000       1.06710000
C        0.81270000      -2.03570000       1.18080000
O        2.13940000      -2.46380000       1.56550000
C        3.06260000      -1.51510000       1.25460000
N        4.31580000      -1.63130000       1.34070000
C        2.33620000      -0.25550000       0.80740000
O        2.85430000       0.72050000       0.33760000
H        0.74470000       2.09680000      -0.02100000
H       -0.92250000       2.00420000      -0.62050000
H       -0.60230000       1.92720000       1.11660000
H       -1.09780000      -0.35800000       0.17790000
H        0.22250000      -0.18820000      -0.96730000
H        0.64680000      -0.07620000       2.05920000
H        0.11920000      -2.40490000       1.93830000
H        0.56220000      -2.49940000       0.21870000
H        4.57320000      -2.56560000       1.66770000
