16
Properties=species:S:1:pos:R:3 pbc="F F F"
C        0.16590000       1.38450000       0.15300000
C       -0.02920000      -0.07290000      -0.05710000
N       -0.41140000      -0.69240000      -1.12880000
C       -0.41940000      -2.03580000      -0.77060000
C       -0.03650000      -2.16170000       0.52090000
C        0.13560000      -3.31230000       1.45830000
C        1.51330000      -3.50410000       1.91260000
C        2.64360000      -3.65910000       2.28700000
O        0.21710000      -0.90050000       0.99510000
H        1.20030000       1.60680000       0.43480000
H       -0.07240000       1.90890000      -0.77250000
H       -0.48110000       1.75830000       0.95340000
H       -0.69780000      -2.80990000      -1.46840000
H       -0.51860000      -3.18210000       2.33130000
H       -0.21480000      -4.21480000       0.94440000
H        3.64410000      -3.79500000       2.61560000
