19
Properties=species:S:1:pos:R:3 pbc="F F F"
C        0.39440000       0.40900000       1.14120000
O       -0.04380000      -0.10000000      -0.11920000
C       -1.22590000      -0.86150000      -0.05810000
C       -2.44340000      -0.14460000       0.49710000
C       -2.70560000       1.14360000      -0.26020000
O       -2.74750000       2.23300000       0.25020000
C       -1.35510000      -1.82160000      -1.22180000
C       -0.99240000      -2.34130000       0.15280000
O        0.29930000      -2.78630000       0.42250000
H        1.38850000       0.82900000       0.97340000
H       -0.26630000       1.20490000       1.50390000
H        0.45810000      -0.38620000       1.89420000
H       -3.31450000      -0.80160000       0.38090000
H       -2.33990000       0.09080000       1.56030000
H       -2.84720000       1.01460000      -1.35660000
H       -2.34140000      -2.02570000      -1.62480000
H       -0.55800000      -1.78920000      -1.95710000
H       -1.72510000      -2.92260000       0.70310000
H        0.89650000      -2.09820000       0.10110000
