18
Properties=species:S:1:pos:R:3 pbc="F F F"
O       -0.13000000       1.42230000      -0.04520000
C       -0.01690000       0.03750000       0.01200000
C        0.28600000      -0.78120000       1.30340000
N       -0.42040000      -1.91680000       0.58940000
C       -1.28690000      -0.83580000      -0.02950000
C        0.53790000      -2.15040000      -0.55870000
C        0.87800000      -0.68500000      -1.01600000
C        1.68980000      -2.94510000      -0.16280000
C        2.65630000      -3.58790000       0.14940000
H        0.74920000       1.80280000      -0.14400000
H        1.31970000      -0.98990000       1.59000000
H       -0.30110000      -0.45890000       2.16510000
H       -2.05480000      -0.52260000       0.67990000
H       -1.73360000      -1.08680000      -0.99630000
H       -0.01300000      -2.68590000      -1.33800000
H        0.57840000      -0.47960000      -2.04680000
H        1.93800000      -0.44350000      -0.89940000
H        3.50070000      -4.16860000       0.42810000
