16
Properties=species:S:1:pos:R:3 pbc="F F F"
N       -0.09920000       1.19520000      -0.06900000
C       -0.10010000      -0.05560000      -0.07440000
O        0.96200000      -0.96140000      -0.19400000
C        0.05240000      -2.06360000       0.06390000
C       -1.13660000      -1.11910000       0.09160000
C       -0.94190000      -2.13820000      -1.02510000
C       -0.77560000      -1.98380000      -2.53260000
O       -1.62670000      -3.13520000      -2.75170000
C       -1.87820000      -3.30210000      -1.34250000
H        0.84400000       1.56850000      -0.18790000
H        0.38460000      -2.84300000       0.73690000
H       -2.02080000      -1.07910000       0.71140000
H       -1.20020000      -1.06990000      -2.96460000
H        0.23860000      -2.13670000      -2.91780000
H       -1.56510000      -4.28850000      -0.97690000
H       -2.93410000      -3.14180000      -1.08870000
