18
Properties=species:S:1:pos:R:3 pbc="F F F"
C       -0.19870000       1.36590000       0.07190000
O        0.29640000       0.06300000      -0.16100000
C        0.78260000      -0.56110000       0.98660000
C       -0.15520000      -1.34540000       1.95420000
C       -0.98840000      -2.23220000       1.00970000
C        0.18920000      -2.75270000       0.12510000
C        1.32600000      -1.99380000       0.83640000
O        1.00300000      -2.18410000       2.25010000
H        0.57710000       2.02150000       0.49530000
H       -0.51660000       1.76940000      -0.89190000
H       -1.05950000       1.36250000       0.75650000
H        1.47770000       0.07490000       1.54830000
H       -0.62310000      -0.91150000       2.83770000
H       -1.49680000      -3.02790000       1.55730000
H       -1.72550000      -1.65950000       0.44210000
H        0.33200000      -3.83250000       0.19740000
H        0.09400000      -2.46870000      -0.92480000
H        2.36140000      -2.21590000       0.58010000
