20
Properties=species:S:1:pos:R:3 pbc="F F F"
C       -0.15080000       1.56200000       0.02870000
C        0.02060000       0.04180000      -0.01510000
N        0.72850000      -0.41910000      -1.20840000
C       -0.05530000      -0.67700000      -2.41130000
C        0.84570000      -0.76710000      -3.63450000
O        1.88900000      -1.68820000      -3.39850000
C        2.74990000      -1.21510000      -2.38230000
C        2.06780000      -0.66960000      -1.12630000
O        2.73090000      -0.45630000      -0.12420000
H        0.82650000       2.05070000       0.06250000
H       -0.69490000       1.93520000      -0.84550000
H       -0.71240000       1.85440000       0.92150000
H        0.59790000      -0.29180000       0.84880000
H       -0.95560000      -0.45740000       0.01030000
H       -0.62400000      -1.61180000      -2.29960000
H       -0.78090000       0.13450000      -2.54900000
H        0.27920000      -1.13050000      -4.49600000
H        1.25300000       0.22760000      -3.88130000
H        3.38470000      -2.04830000      -2.07340000
H        3.40950000      -0.41710000      -2.76220000
