14
Properties=species:S:1:pos:R:3 pbc="F F F"
N       -0.04820000       1.49280000       0.02460000
C        0.06310000       0.03490000       0.02780000
C        0.62140000      -0.53930000       1.31700000
C       -0.32120000      -1.28580000       1.89420000
N       -1.50850000      -1.30400000       1.14550000
C       -1.40860000      -0.51560000       0.02580000
O       -2.26420000      -0.24990000      -0.77770000
C        0.79360000      -0.50470000      -1.13870000
N        1.39660000      -0.88090000      -2.05130000
H        0.86280000       1.91580000      -0.12490000
H       -0.64650000       1.76540000      -0.75260000
H        1.62810000      -0.37780000       1.66760000
H       -0.27330000      -1.84800000       2.81550000
H       -2.37480000      -1.73070000       1.43030000
