21
Properties=species:S:1:pos:R:3 pbc="F F F"
C        0.14230000       1.56240000       0.02840000
C        0.01180000       0.06680000      -0.05140000
C        0.02160000      -0.57430000      -1.23250000
C       -0.10870000      -1.99190000      -1.57200000
C        0.05190000      -3.16000000      -0.92220000
C        0.46600000      -3.52000000       0.49370000
C        1.47060000      -2.61160000       1.16470000
C        1.21190000      -1.36640000       1.55730000
C       -0.09380000      -0.66900000       1.27530000
H        1.01440000       1.85080000       0.63080000
H        0.24660000       2.01910000      -0.95910000
H       -0.73140000       2.00740000       0.52340000
H        0.09250000       0.06050000      -2.11490000
H       -0.39850000      -2.11810000      -2.61540000
H       -0.16460000      -4.04150000      -1.52460000
H       -0.43830000      -3.61530000       1.11430000
H        0.88250000      -4.53230000       0.45840000
H        2.46600000      -3.02040000       1.31940000
H        1.99810000      -0.77270000       2.01810000
H       -0.33890000       0.03720000       2.07540000
H       -0.91080000      -1.39580000       1.22140000
