19
Properties=species:S:1:pos:R:3 pbc="F F F"
C        0.23040000       1.38940000       0.12080000
O       -0.20810000       0.09490000      -0.25450000
C        0.59290000      -0.49510000      -1.23200000
C        1.98310000      -1.12210000      -0.77150000
O        2.25930000      -1.07170000       0.59790000
C        1.46490000      -2.46670000      -1.30630000
O        0.30750000      -2.74360000      -0.50150000
C        0.14410000      -1.89580000      -1.65550000
C       -0.88560000      -2.27580000      -2.66820000
H        1.23740000       1.36120000       0.55350000
H        0.22760000       2.07700000      -0.73940000
H       -0.47360000       1.76010000       0.86940000
H        0.72780000       0.16670000      -2.10270000
H        2.84430000      -0.71580000      -1.30590000
H        1.48850000      -1.46750000       1.02750000
H        1.99760000      -3.31500000      -1.72170000
H       -1.88710000      -2.01130000      -2.31280000
H       -0.71230000      -1.74880000      -3.61190000
H       -0.86090000      -3.35240000      -2.85510000
