17
Properties=species:S:1:pos:R:3 pbc="F F F"
O       -0.49270000       1.05360000       0.19470000
C        0.02320000      -0.26860000      -0.00960000
C        0.78600000      -0.37480000      -1.24920000
C        1.38700000      -0.39780000      -2.28840000
C        0.80260000      -0.71800000       1.21350000
N        1.89500000      -1.37770000       1.19920000
C        2.22440000      -1.63850000       2.61360000
C        1.28070000      -0.72280000       3.44280000
N        0.23450000      -0.44200000       2.45080000
H        0.22110000       1.66890000      -0.00970000
H       -0.87160000      -0.90170000      -0.07590000
H        1.92990000      -0.44000000      -3.20030000
H        2.04070000      -2.69860000       2.83160000
H        3.28350000      -1.44670000       2.80590000
H        0.87250000      -1.21460000       4.32960000
H        1.78840000       0.19790000       3.76370000
H       -0.28850000       0.41980000       2.51460000
