19
Properties=species:S:1:pos:R:3 pbc="F F F"
C       -0.25690000       1.57500000       0.28190000
C       -0.00930000       0.10610000      -0.00560000
C        1.40060000      -0.32590000      -0.38450000
C        0.82570000      -0.68050000       0.96760000
O        1.25270000      -0.00680000       2.11460000
C       -1.19620000      -0.57320000      -0.69720000
N       -1.44380000       0.05140000      -2.00140000
C       -1.02960000      -2.04050000      -0.80640000
N       -0.91210000      -3.18240000      -0.94970000
H        0.59620000       2.01040000       0.80300000
H       -0.43810000       2.12330000      -0.64510000
H       -1.13520000       1.70020000       0.92580000
H        1.54130000      -1.13000000      -1.09980000
H        2.15220000       0.45540000      -0.41640000
H        0.56210000      -1.72530000       1.12620000
H        2.12730000      -0.33860000       2.34250000
H       -2.08800000      -0.40220000      -0.08010000
H       -0.64570000      -0.11080000      -2.60970000
H       -2.24740000      -0.37840000      -2.44950000
