19
Properties=species:S:1:pos:R:3 pbc="F F F"
C       -0.17260000       1.55000000       0.82040000
C       -0.13190000       0.07230000       0.48510000
C        1.05430000      -0.49020000      -0.34420000
O        1.95330000      -0.23960000       0.80800000
C        0.73330000      -0.87670000       1.38490000
C        0.65140000      -1.10140000       2.79560000
C        0.54420000      -1.30310000       3.97640000
C        0.81180000      -1.91870000       0.21750000
C       -0.34380000      -2.81840000      -0.18180000
H        0.82500000       1.91550000       1.06950000
H       -0.55860000       2.12710000      -0.02690000
H       -0.83520000       1.73350000       1.67290000
H       -1.11960000      -0.31570000       0.22560000
H        1.41560000      -0.18650000      -1.32680000
H        0.45820000      -1.47880000       5.02040000
H        1.75240000      -2.47170000       0.27800000
H       -1.29840000      -2.29470000      -0.26890000
H       -0.13490000      -3.29220000      -1.14700000
H       -0.46870000      -3.61870000       0.55520000
