20
Properties=species:S:1:pos:R:3 pbc="F F F"
C       -0.02660000       1.52210000      -0.12210000
C        0.01410000       0.02190000       0.03970000
N        1.34900000      -0.62400000      -0.09110000
C        0.65570000      -0.65340000       1.17900000
C        1.17530000      -0.14680000       2.54290000
C       -0.11800000      -0.79750000       3.13280000
C        0.18610000      -1.84000000       2.02730000
O        1.42390000      -2.43170000       2.46030000
C        2.19800000      -1.25800000       2.82570000
H        0.85600000       1.98090000       0.33050000
H       -0.04390000       1.79720000      -1.18200000
H       -0.92070000       1.94330000       0.35070000
H       -0.82480000      -0.50720000      -0.41380000
H        1.28050000      -1.52400000      -0.56130000
H        1.46850000       0.88410000       2.73170000
H       -0.08510000      -1.15810000       4.16320000
H       -1.01530000      -0.20740000       2.94210000
H       -0.50250000      -2.61490000       1.69270000
H        3.08740000      -1.18500000       2.19050000
H        2.49980000      -1.32500000       3.87680000
