17
Properties=species:S:1:pos:R:3 pbc="F F F"
C        0.08930000       1.56530000      -0.11430000
C        0.09980000       0.05730000       0.04580000
N        1.07460000      -0.67590000      -0.80310000
C        1.32500000      -1.65860000       0.26740000
C        2.71440000      -2.07400000       0.43380000
N        3.81380000      -2.38210000       0.61660000
C        0.76010000      -0.59430000       1.30160000
N        1.69520000       0.25300000       1.99380000
H        1.08530000       1.98980000       0.02740000
H       -0.25680000       1.83550000      -1.11770000
H       -0.58700000       2.02410000       0.61340000
H       -0.92490000      -0.33190000      -0.06100000
H        0.72630000      -1.05880000      -1.67570000
H        0.68780000      -2.55400000       0.23390000
H        0.06480000      -1.02020000       2.02660000
H        2.14920000      -0.25420000       2.74680000
H        2.43120000       0.56850000       1.36890000
