15
Properties=species:S:1:pos:R:3 pbc="F F F"
C        0.02970000      -3.78180000      -0.04250000
C        0.03830000      -2.57390000      -0.02010000
C        0.04590000      -1.21480000       0.00620000
C        0.05220000      -0.00320000       0.02690000
C        0.05360000       1.42400000       0.05340000
C        0.44570000       2.24650000       1.28740000
C        1.64180000       1.58940000       1.96850000
O        2.39040000       1.58490000       0.71720000
C        1.32500000       2.25810000       0.06940000
H        0.02440000      -4.84310000      -0.06420000
H       -0.74620000       1.90110000      -0.50970000
H       -0.21320000       2.99220000       1.71030000
H        2.13380000       2.23800000       2.69990000
H        1.50650000       0.58290000       2.37610000
H        1.56280000       3.00390000      -0.68060000
