16
Properties=species:S:1:pos:R:3 pbc="F F F"
C        0.06200000       1.50580000       0.05470000
C        0.03340000       0.02020000       0.01840000
C        0.88620000      -1.03930000      -0.60610000
C        0.51950000      -1.06960000       0.92150000
C       -0.81450000      -1.80830000       0.85360000
N       -1.20920000      -0.83830000      -0.29690000
C       -0.32680000      -1.76790000      -1.17860000
C       -0.64740000      -2.91060000      -0.20320000
O       -0.83670000      -4.08620000      -0.27200000
H        1.06830000       1.86030000       0.30260000
H       -0.21820000       1.92780000      -0.91640000
H       -0.63120000       1.89360000       0.80890000
H        1.91170000      -1.00780000      -0.94960000
H        1.27720000      -1.06020000       1.69390000
H       -1.46090000      -1.90080000       1.72350000
H       -0.50730000      -1.82190000      -2.24990000
