19
Properties=species:S:1:pos:R:3 pbc="F F F"
O        0.12320000       1.09970000      -0.66590000
C       -0.00280000       0.04930000       0.27900000
C       -1.38690000      -0.57150000       0.25580000
C       -1.85170000      -1.25230000      -1.00640000
O       -0.90650000      -1.32320000      -2.04580000
C       -0.39000000      -2.62600000      -2.31170000
C        0.05280000      -3.35010000      -1.06600000
C       -0.49210000      -3.06850000       0.11690000
C       -1.60310000      -2.08940000       0.21590000
H       -0.01380000       0.68500000      -1.52650000
H        0.75920000      -0.72440000       0.11830000
H        0.18780000       0.49430000       1.26100000
H       -2.15210000      -0.01100000       0.78510000
H       -2.86860000      -1.09440000      -1.35940000
H       -1.13690000      -3.22620000      -2.85840000
H        0.45450000      -2.47100000      -2.99060000
H        0.82880000      -4.10190000      -1.17460000
H       -0.16280000      -3.57070000       1.02220000
H       -2.47780000      -2.44430000       0.75450000
