19
Properties=species:S:1:pos:R:3 pbc="F F F"
C       -0.27070000       1.43500000       0.05160000
N       -0.01630000       0.00940000       0.18060000
C        1.29260000      -0.50220000      -0.21210000
C        0.87160000      -0.50770000       1.22160000
C        1.57070000       0.40740000       2.20860000
C        0.38350000      -1.83080000       1.82110000
C       -0.55960000      -1.65230000       2.92080000
C       -1.33110000      -1.48670000       3.82790000
H        0.61540000       2.07600000       0.17840000
H       -0.67890000       1.62590000      -0.94620000
H       -1.02240000       1.73640000       0.78770000
H        1.29500000      -1.41570000      -0.80350000
H        2.05960000       0.21920000      -0.49530000
H        1.94430000       1.31810000       1.73680000
H        0.89540000       0.68770000       3.02300000
H        2.42840000      -0.10860000       2.65390000
H       -0.09100000      -2.41450000       1.02530000
H        1.24890000      -2.40940000       2.17240000
H       -2.01910000      -1.35250000       4.62520000
