20
Properties=species:S:1:pos:R:3 pbc="F F F"
C        0.01180000       1.50590000       0.01410000
C        0.03720000      -0.02500000      -0.00480000
C       -1.38500000      -0.57870000      -0.13290000
C        1.02480000      -0.64770000      -1.03070000
N        2.29730000       0.08840000      -0.69990000
C        2.27810000      -0.75320000       0.52440000
C        1.51460000      -1.90200000      -0.13670000
O        0.64120000      -2.07930000       0.97930000
C        0.83140000      -0.64480000       1.18150000
H        1.00940000       1.92970000       0.12740000
H       -0.41490000       1.89650000      -0.91640000
H       -0.62100000       1.85700000       0.83740000
H       -1.85080000      -0.20280000      -1.05080000
H       -1.39780000      -1.66890000      -0.15430000
H       -2.00630000      -0.25130000       0.70820000
H        0.73040000      -0.71310000      -2.07770000
H        3.04260000      -0.27710000      -1.29330000
H        3.15840000      -0.83310000       1.16030000
H        1.91050000      -2.81000000      -0.59220000
H        0.64110000      -0.31480000       2.20210000
