16
Properties=species:S:1:pos:R:3 pbc="F F F"
N       -0.00210000       1.17080000      -0.59960000
C       -0.04350000       0.05040000       0.20720000
O        0.87810000      -0.27040000       0.93160000
C       -1.28490000      -0.76400000       0.10450000
C       -1.90600000      -1.31000000       1.37200000
C       -1.33630000      -2.29300000       0.39540000
N       -2.23180000      -2.85200000      -0.57570000
C       -2.65790000      -1.89150000      -1.30660000
N       -2.21140000      -0.60040000      -1.00060000
H        0.78590000       1.77780000      -0.42230000
H       -0.86680000       1.64510000      -0.81280000
H       -1.32560000      -1.13600000       2.27030000
H       -2.98460000      -1.24340000       1.47040000
H       -0.46050000      -2.87060000       0.66550000
H       -3.36110000      -2.02250000      -2.12270000
H       -1.87820000      -0.05980000      -1.79010000
