16
Properties=species:S:1:pos:R:3 pbc="F F F"
N       -0.06410000      -1.17640000       0.00870000
C       -0.02830000      -0.02180000       0.01700000
C       -0.00470000       1.44290000       0.01940000
C       -0.74740000       2.06380000       1.21160000
N       -0.18300000       1.69690000       2.51430000
C        0.20800000       2.97680000       1.89090000
C        1.51660000       2.92330000       1.13680000
C        2.25690000       1.63640000       1.12220000
N        1.38040000       1.98920000      -0.00910000
H       -0.49270000       1.78380000      -0.90180000
H       -1.80840000       2.27100000       1.11520000
H       -0.86920000       1.85120000       3.24830000
H       -0.10940000       3.91170000       2.33840000
H        2.01230000       3.86740000       0.93240000
H        3.31120000       1.61930000       0.86250000
H        1.92870000       0.87440000       1.82020000
