20
Properties=species:S:1:pos:R:3 pbc="F F F"
C       -0.25610000       1.56060000      -0.00080000
C        0.00990000       0.07300000       0.00260000
C        1.07180000      -0.49870000      -0.98140000
C        1.75070000      -1.28550000       0.18210000
C        0.68370000      -0.74200000       1.16630000
C        1.09350000      -0.22530000       2.52020000
O       -0.45990000      -1.63220000       1.23620000
C       -1.17220000      -0.88890000       0.22330000
H        0.67610000       2.13420000       0.04890000
H       -0.77590000       1.86220000      -0.91880000
H       -0.88200000       1.86100000       0.84670000
H        0.67190000      -1.10080000      -1.80200000
H        1.71340000       0.27590000      -1.40990000
H        1.74520000      -2.37430000       0.10010000
H        2.76890000      -0.95100000       0.40030000
H        1.91220000       0.49660000       2.43480000
H        0.25270000       0.25580000       3.02910000
H        1.43770000      -1.05480000       3.14900000
H       -2.07360000      -0.41520000       0.63670000
H       -1.46300000      -1.51560000      -0.63030000
