19
Properties=species:S:1:pos:R:3 pbc="F F F"
O        0.07960000       1.27540000      -0.58860000
C        0.05090000       0.15260000       0.27400000
C       -1.33090000      -0.45410000       0.34210000
N       -1.75230000      -1.11370000      -0.92140000
C       -1.56690000      -1.91370000       0.28510000
C       -0.65330000      -3.14490000       0.32150000
N       -1.75500000      -3.98570000       0.92650000
C       -2.08990000      -3.34090000       2.20750000
C       -2.62870000      -2.74150000       0.96760000
H       -0.26010000       0.96320000      -1.43600000
H        0.77140000      -0.61630000      -0.04540000
H        0.36070000       0.51070000       1.26160000
H       -2.07780000       0.14850000       0.85690000
H       -2.74270000      -0.95510000      -1.09350000
H       -0.40380000      -3.50780000      -0.67720000
H        0.25090000      -3.10000000       0.93760000
H       -2.76530000      -3.93400000       2.81680000
H       -1.30980000      -2.82270000       2.76210000
H       -3.68190000      -2.76710000       0.70170000
