23
Properties=species:S:1:pos:R:3 pbc="F F F"
C       -0.35070000       1.42300000       0.09170000
C        0.12950000      -0.01060000      -0.02670000
O        1.36850000      -0.11300000      -0.77690000
C        2.04950000      -0.76750000       0.31400000
C        0.80080000      -0.67090000       1.18340000
C        0.70240000      -0.29630000       2.63470000
C        0.24790000      -1.66560000       2.16660000
C       -1.24270000      -1.94760000       2.14130000
C        1.10570000      -2.86340000       2.52870000
H        0.40150000       2.04640000       0.58360000
H       -0.54730000       1.83510000      -0.90310000
H       -1.28070000       1.47550000       0.66920000
H       -0.64860000      -0.63250000      -0.49390000
H        2.37050000      -1.78370000       0.04660000
H        2.92490000      -0.19730000       0.65260000
H        1.62540000      -0.22500000       3.20330000
H       -0.05510000       0.42460000       2.92840000
H       -1.82110000      -1.05810000       1.87340000
H       -1.48590000      -2.73330000       1.41610000
H       -1.59090000      -2.28580000       3.12410000
H        0.84320000      -3.24430000       3.52260000
H        0.96580000      -3.68250000       1.81340000
H        2.17060000      -2.61160000       2.54180000
