14
Properties=species:S:1:pos:R:3 pbc="F F F"
C       -0.07690000       1.51180000      -0.00380000
C        1.43100000       1.86830000      -0.02000000
O        2.17490000       1.43300000       1.11330000
C        2.26530000       0.64080000      -0.09520000
C        1.28580000      -0.47210000      -0.10690000
C        0.03270000       0.02320000      -0.04060000
O       -0.83830000      -1.00980000       0.07600000
C       -0.01690000      -2.10850000       0.04300000
N        1.25090000      -1.85530000      -0.05810000
H       -0.56340000       1.89410000       0.90000000
H       -0.59360000       1.94000000      -0.87070000
H        1.74010000       2.81870000      -0.44640000
H        3.24440000       0.59960000      -0.55910000
H       -0.50750000      -3.06740000       0.09370000
