19
Properties=species:S:1:pos:R:3 pbc="F F F"
C       -0.06540000       1.45420000       0.05130000
C       -0.01810000      -0.03060000      -0.01500000
C       -0.02160000      -0.89250000      -1.03580000
C        0.04550000      -2.26960000      -0.36220000
C       -0.99350000      -2.06990000       0.78940000
C        0.05230000      -0.97060000       1.22400000
C        1.13950000      -1.99880000       0.72210000
C        0.07470000      -0.39400000       2.54280000
C        0.09360000       0.08390000       3.64710000
H        0.81630000       1.85860000       0.56360000
H       -0.11360000       1.89200000      -0.94960000
H       -0.93560000       1.80020000       0.62260000
H       -0.06180000      -0.69490000      -2.09790000
H        0.05550000      -3.16140000      -0.98650000
H       -1.99130000      -1.71860000       0.51890000
H       -1.04420000      -2.90470000       1.49480000
H        1.28990000      -2.82690000       1.42110000
H        2.09270000      -1.58260000       0.38990000
H        0.11050000       0.50150000       4.62300000
