20
Properties=species:S:1:pos:R:3 pbc="F F F"
C        0.09530000       1.49430000      -0.13210000
C        0.05080000      -0.01620000       0.10310000
O        0.64470000      -0.36370000       1.35640000
C       -1.36830000      -0.56110000       0.03310000
C       -2.07880000      -0.78020000      -1.33560000
N       -1.11960000      -1.92800000      -1.57770000
C       -1.59320000      -2.09160000      -0.14220000
C       -3.03540000      -1.79060000      -0.61490000
O       -3.95520000      -1.37650000       0.35960000
H        1.12000000       1.86170000      -0.02910000
H       -0.26670000       1.75120000      -1.13310000
H       -0.53280000       2.02380000       0.59620000
H        0.66380000      -0.52300000      -0.64520000
H        0.13830000       0.07430000       2.05000000
H       -2.00980000      -0.10520000       0.79230000
H       -2.30770000      -0.04880000      -2.11380000
H       -1.57120000      -2.63550000      -2.16850000
H       -1.23900000      -2.90320000       0.49340000
H       -3.45890000      -2.55330000      -1.28540000
H       -4.75640000      -1.08080000      -0.08410000
