13
Properties=species:S:1:pos:R:3 pbc="F F F"
N       -0.06980000       1.30870000       0.15280000
C        0.05130000      -0.05710000       0.01930000
N        1.11390000      -0.76320000      -0.06880000
C       -1.26300000      -0.72990000       0.02140000
N       -2.42750000      -0.14850000      -0.00340000
C       -3.33690000      -1.19120000      -0.00150000
C       -2.65460000      -2.36260000       0.02500000
O       -1.32410000      -2.07750000       0.04020000
H        0.71230000       1.87380000      -0.13490000
H       -0.98760000       1.69600000      -0.00970000
H        1.94640000      -0.17110000      -0.05640000
H       -4.40180000      -1.02370000      -0.01970000
H       -2.92360000      -3.40460000       0.03610000
