23
Properties=species:S:1:pos:R:3 pbc="F F F"
C        0.23960000       1.58600000       0.30390000
C        0.19280000       0.10550000       0.06020000
C       -0.97320000      -0.75580000       0.48290000
C        0.41000000      -0.97490000       1.08170000
C        1.32330000      -2.01180000       0.42740000
C        2.77130000      -1.75150000       0.87970000
C        0.92320000      -3.46540000       0.70170000
C        1.15780000      -1.64520000      -1.07360000
O        0.85230000      -0.25600000      -1.13680000
H        1.27490000       1.94000000       0.34070000
H       -0.27480000       2.12660000      -0.49760000
H       -0.24800000       1.83510000       1.25030000
H       -1.71710000      -0.29890000       1.12720000
H       -1.38050000      -1.48510000      -0.20940000
H        0.56800000      -0.74450000       2.13030000
H        2.87110000      -1.85830000       1.96530000
H        3.46290000      -2.45960000       0.41010000
H        3.08580000      -0.73900000       0.60830000
H       -0.12550000      -3.64500000       0.44490000
H        1.53790000      -4.16140000       0.11890000
H        1.05660000      -3.71620000       1.75940000
H        2.06710000      -1.81640000      -1.65790000
H        0.35090000      -2.23820000      -1.52870000
