19
Properties=species:S:1:pos:R:3 pbc="F F F"
C       -0.11860000       1.44560000       0.03180000
C        0.00200000      -0.03780000      -0.01520000
C       -0.02920000      -0.89950000      -1.04770000
C        0.15040000      -2.31630000      -0.45450000
C       -0.67240000      -2.26870000       0.86790000
C        0.42080000      -2.74390000       1.87060000
C        0.38330000      -1.37990000       2.64220000
C        0.20100000      -0.99910000       1.15330000
C        1.19920000      -2.11050000       0.67930000
H        0.77400000       1.90590000       0.47470000
H       -0.25630000       1.86640000      -0.96830000
H       -0.96780000       1.75870000       0.65270000
H       -0.15490000      -0.66410000      -2.09650000
H        0.15380000      -3.16930000      -1.13550000
H       -1.75690000      -2.31680000       0.99660000
H        0.54770000      -3.74030000       2.29390000
H       -0.47150000      -1.21460000       3.30600000
H        1.31310000      -1.06380000       3.12610000
H        2.28030000      -1.97550000       0.58970000
