19
Properties=species:S:1:pos:R:3 pbc="F F F"
C        0.04480000       1.49370000      -0.08140000
C        0.01980000      -0.03140000       0.01380000
O        0.77250000      -0.49910000       1.13640000
C       -1.39900000      -0.57230000       0.03270000
C       -2.01480000      -1.18670000      -1.19000000
C       -1.60490000      -2.08980000      -0.03520000
N       -0.48750000      -2.98420000      -0.14280000
C       -2.69740000      -2.59660000       0.77810000
N       -3.57010000      -2.97650000       1.43550000
H        1.07690000       1.85300000      -0.08940000
H       -0.45650000       1.83860000      -0.99130000
H       -0.46960000       1.94520000       0.77540000
H        0.54850000      -0.45160000      -0.84810000
H        0.32880000      -0.20490000       1.94000000
H       -2.07780000      -0.04310000       0.69740000
H       -3.07270000      -1.04330000      -1.37430000
H       -1.40320000      -1.25880000      -2.08420000
H       -0.23470000      -3.18800000      -1.09930000
H        0.31300000      -2.63520000       0.37100000
