15
Properties=species:S:1:pos:R:3 pbc="F F F"
N        0.53420000       0.22240000      -0.99810000
C       -0.03340000       0.16690000       0.23370000
O        0.48090000       0.58010000       1.25570000
C       -1.38190000      -0.49130000       0.25720000
C       -2.36330000      -0.43970000       1.43570000
C       -2.64380000      -1.94340000       1.16050000
O       -3.24310000      -2.79370000       1.74860000
C       -1.69690000      -1.96440000      -0.02560000
N       -2.04660000      -0.88970000      -0.96590000
H        1.43430000       0.66040000      -1.09730000
H        0.00600000      -0.05300000      -1.80930000
H       -1.87060000      -0.31780000       2.40340000
H       -3.18610000       0.27590000       1.35130000
H       -1.06140000      -2.76880000      -0.37630000
H       -3.03940000      -0.66330000      -0.97210000
