17
Properties=species:S:1:pos:R:3 pbc="F F F"
C       -0.04140000       1.55550000      -0.02240000
C        0.00440000       0.05050000      -0.01840000
C       -0.03610000      -0.68950000      -1.21020000
N       -0.15860000      -0.04770000      -2.42950000
C       -0.00400000      -2.09420000      -1.14200000
C        0.06600000      -2.69360000       0.09930000
N        0.10980000      -2.01620000       1.25300000
C        0.07880000      -0.68990000       1.16670000
O        0.12510000      -0.01620000       2.34280000
H        0.84100000       1.99120000      -0.51250000
H       -0.92460000       1.92690000      -0.55690000
H       -0.07320000       1.94360000       0.99530000
H        0.16460000       0.90580000      -2.47340000
H        0.09510000      -0.58920000      -3.24100000
H       -0.03650000      -2.69230000      -2.04640000
H        0.09220000      -3.77730000       0.18200000
H        0.16680000      -0.70230000       3.02300000
