19
Properties=species:S:1:pos:R:3 pbc="F F F"
C       -0.69070000       1.54020000      -0.26910000
C        0.05350000       0.21310000      -0.08030000
C       -0.89590000      -0.90680000       0.38450000
C        0.79280000      -0.20120000      -1.31740000
C        0.80730000       0.34780000      -2.55220000
O        1.64580000      -0.41590000      -3.35300000
C        2.08400000      -1.38530000      -2.52440000
N        2.89720000      -2.34470000      -3.07470000
N        1.63120000      -1.32450000      -1.31140000
H       -0.00870000       2.34540000      -0.55980000
H       -1.46110000       1.45100000      -1.04360000
H       -1.18830000       1.83680000       0.65900000
H        0.80680000       0.34860000       0.70860000
H       -1.69630000      -1.06310000      -0.34730000
H       -0.35340000      -1.84800000       0.49960000
H       -1.35710000      -0.64880000       1.34350000
H        0.35020000       1.19720000      -3.02570000
H        3.47350000      -2.02260000      -3.83830000
H        3.40520000      -2.87180000      -2.38030000
