21
Properties=species:S:1:pos:R:3 pbc="F F F"
C       -0.07580000       1.54450000       0.04930000
C        0.05150000       0.02570000      -0.02190000
C        0.79310000      -0.46270000      -1.26010000
O        1.26400000       0.31850000      -2.06510000
C        0.91740000      -1.93510000      -1.44010000
C        1.49990000      -2.49080000      -2.51150000
C        1.45330000      -3.99260000      -2.48250000
C        1.01830000      -4.30450000      -1.02650000
C        0.36980000      -2.99720000      -0.50120000
H        0.90940000       2.01740000       0.04580000
H       -0.62060000       1.93060000      -0.81620000
H       -0.60540000       1.84770000       0.95690000
H        0.57580000      -0.36900000       0.86020000
H       -0.93450000      -0.45950000      -0.00070000
H        1.92310000      -1.91290000      -3.32480000
H        0.72470000      -4.36040000      -3.21990000
H        2.41040000      -4.45400000      -2.75030000
H        0.34920000      -5.16550000      -0.95790000
H        1.90420000      -4.53630000      -0.42710000
H        0.61020000      -2.81230000       0.55100000
H       -0.72700000      -3.03750000      -0.56140000
