16
Properties=species:S:1:pos:R:3 pbc="F F F"
C        0.43400000       1.55320000       0.26950000
N        1.25640000       0.41380000      -0.16860000
C       -0.16780000       0.20110000       0.14060000
C       -0.46840000      -0.62070000       1.33450000
O        0.14890000      -0.31560000       2.61920000
C       -0.68780000      -1.46140000       2.93910000
C       -1.83870000      -1.05560000       1.96880000
O       -1.87860000      -2.33860000       1.28610000
C       -0.45990000      -2.17400000       1.57260000
H        0.67560000       1.92570000       1.25960000
H        0.14630000       2.30950000      -0.45590000
H        1.38470000       0.44200000      -1.17690000
H       -0.85520000       0.02620000      -0.68450000
H       -0.70080000      -1.83950000       3.96000000
H       -2.76600000      -0.50710000       2.13270000
H        0.24360000      -2.94600000       1.26420000
