19
Properties=species:S:1:pos:R:3 pbc="F F F"
C        0.44560000       0.94310000      -0.35990000
O       -0.33240000       0.13960000       0.50290000
C        0.40800000      -0.58380000       1.45400000
C       -0.58130000      -1.12420000       2.49270000
C        1.16970000      -1.74630000       0.80720000
O        0.92930000      -2.14580000      -0.31070000
C        2.27730000      -2.41460000       1.61770000
N        2.74580000      -3.54180000       1.01070000
N        2.62370000      -1.87990000       2.72990000
H        1.08850000       0.34330000      -1.01640000
H       -0.25250000       1.51240000      -0.97810000
H        1.07380000       1.64880000       0.20610000
H        1.14400000       0.05790000       1.95960000
H       -0.05060000      -1.65030000       3.28740000
H       -1.13380000      -0.28480000       2.92150000
H       -1.29670000      -1.80080000       2.01620000
H        2.45260000      -3.68370000       0.05540000
H        3.61170000      -3.95520000       1.31180000
H        3.38140000      -2.39800000       3.18060000
