23
Properties=species:S:1:pos:R:3 pbc="F F F"
C        0.11040000       1.35480000       0.10480000
O       -0.14790000      -0.01250000      -0.10960000
C        0.56830000      -0.57150000      -1.19680000
C        2.07990000      -0.77770000      -0.92850000
C        2.47270000      -2.00740000      -1.77580000
C        1.19600000      -2.83340000      -1.86840000
C        0.42510000      -3.05810000      -0.58990000
C        0.01400000      -1.94870000      -1.53040000
C       -1.31550000      -2.00950000      -2.24180000
H        1.15190000       1.54370000       0.40560000
H       -0.09940000       1.95510000      -0.79540000
H       -0.54930000       1.68830000       0.91020000
H        0.43490000       0.07900000      -2.08040000
H        2.67930000       0.10330000      -1.17090000
H        2.21490000      -0.97500000       0.13990000
H        2.77840000      -1.69660000      -2.78210000
H        3.31510000      -2.55800000      -1.34220000
H        1.11690000      -3.58030000      -2.65190000
H       -0.22820000      -3.92360000      -0.55450000
H        0.88100000      -2.81510000       0.36390000
H       -2.10390000      -1.56660000      -1.62360000
H       -1.28670000      -1.45890000      -3.19020000
H       -1.60250000      -3.04220000      -2.46350000
