21
Properties=species:S:1:pos:R:3 pbc="F F F"
C       -0.07230000       1.49890000       0.19750000
C        0.03190000      -0.02950000      -0.00160000
C        0.75910000      -0.38830000      -1.29870000
C        0.73530000      -0.63980000       1.20910000
O        1.88960000      -1.01540000       1.16420000
C       -0.03840000      -0.74060000       2.49850000
O       -1.37260000      -0.31100000       2.49600000
C        0.35930000      -1.85660000       3.45070000
C        0.73180000      -0.44130000       3.76850000
H        0.92480000       1.94660000       0.26350000
H       -0.58880000       1.95160000      -0.65460000
H       -0.62860000       1.74360000       1.10480000
H       -0.99210000      -0.42270000      -0.02710000
H        1.79050000      -0.02760000      -1.27370000
H        0.79590000      -1.47090000      -1.45010000
H        0.25140000       0.06280000      -2.15670000
H       -1.92240000      -1.02750000       2.16100000
H       -0.45070000      -2.30540000       4.01480000
H        1.14120000      -2.52470000       3.11010000
H        1.76770000      -0.14920000       3.64660000
H        0.16930000       0.07420000       4.53770000
