20
Properties=species:S:1:pos:R:3 pbc="F F F"
C       -0.16200000       1.53240000      -0.03230000
C        0.05160000       0.01870000      -0.00290000
C        0.77100000      -0.49360000       1.26870000
O        0.08110000      -0.08080000       2.44960000
C        0.92770000      -2.02820000       1.22460000
C        1.63080000      -2.62330000       2.44000000
O        1.58670000      -4.03430000       2.28690000
C        2.10720000       0.13700000       1.35610000
N        3.16120000       0.60910000       1.37640000
H        0.79300000       2.06520000      -0.05810000
H       -0.73320000       1.81960000      -0.91940000
H       -0.70820000       1.86590000       0.85360000
H       -0.91340000      -0.50360000      -0.04820000
H        0.62120000      -0.30730000      -0.88010000
H       -0.79420000      -0.48450000       2.41880000
H       -0.07640000      -2.46490000       1.14980000
H        1.46650000      -2.31710000       0.31630000
H        2.66610000      -2.25530000       2.48830000
H        1.12070000      -2.29750000       3.35730000
H        2.05880000      -4.42960000       3.02540000
