14
Properties=species:S:1:pos:R:3 pbc="F F F"
C       -0.03960000       1.48410000      -0.13450000
N       -0.07190000       0.04790000       0.07050000
C       -1.21510000      -0.66810000       0.06880000
C       -1.32270000      -2.06160000       0.02280000
N       -0.25320000      -2.96500000      -0.07410000
N       -2.65680000      -2.33140000       0.08720000
N       -3.39630000      -1.35440000       0.15640000
O       -2.37730000      -0.09380000       0.14500000
H        0.93280000       1.86630000       0.18340000
H       -0.20520000       1.76850000      -1.18240000
H       -0.81500000       1.95440000       0.47330000
H        0.75250000      -0.49750000      -0.13160000
H       -0.15530000      -3.55670000       0.74440000
H       -0.31590000      -3.56520000      -0.88940000
