17
Properties=species:S:1:pos:R:3 pbc="F F F"
O        0.00830000       1.40840000       0.00110000
C        0.03400000       0.00520000       0.11310000
C       -1.34070000      -0.60940000      -0.12800000
C       -1.39460000      -2.12070000      -0.01490000
C       -2.85550000      -2.52890000      -0.00270000
O       -3.56340000      -1.86810000       1.05670000
C       -3.27330000      -0.60370000       1.42630000
O       -3.92760000      -0.03740000       2.24830000
O       -2.20560000       0.00450000       0.85960000
H       -0.65520000       1.72500000       0.62570000
H        0.73110000      -0.36490000      -0.64640000
H        0.39980000      -0.32400000       1.09920000
H       -1.70450000      -0.28570000      -1.11200000
H       -0.87890000      -2.58180000      -0.86260000
H       -0.90350000      -2.45480000       0.90620000
H       -3.33840000      -2.28350000      -0.95720000
H       -2.98980000      -3.59630000       0.18400000
