27
Properties=species:S:1:pos:R:3 pbc="F F F"
C       -0.45870000       1.12420000       0.42980000
C       -0.08490000      -0.34850000       0.17730000
C       -1.38460000      -1.16350000       0.07660000
C        0.85850000      -0.48500000      -1.06030000
C        2.25580000       0.03430000      -0.68700000
O        2.97930000       0.36270000      -1.86890000
C        0.87900000      -1.90550000      -1.69550000
C        1.52440000      -1.93600000      -3.09100000
C        1.50810000      -2.98060000      -0.79340000
H        0.41190000       1.77650000       0.53590000
H       -1.06240000       1.51230000      -0.39930000
H       -1.05330000       1.22090000       1.34430000
H        0.46170000      -0.71180000       1.06030000
H       -1.94990000      -0.89830000      -0.82490000
H       -1.21150000      -2.24190000       0.05910000
H       -2.02610000      -0.94990000       0.93810000
H        0.47420000       0.19660000      -1.83290000
H        2.16380000       0.92190000      -0.04680000
H        2.78950000      -0.72590000      -0.09610000
H        3.84920000       0.67730000      -1.60620000
H       -0.17010000      -2.18380000      -1.84300000
H        1.39780000      -2.92670000      -3.54250000
H        1.06040000      -1.20170000      -3.75770000
H        2.59060000      -1.70690000      -3.04810000
H        1.09360000      -2.97220000       0.21990000
H        1.33430000      -3.97710000      -1.21270000
H        2.59280000      -2.85440000      -0.71040000
