21
Properties=species:S:1:pos:R:3 pbc="F F F"
C       -0.11780000       1.52380000       0.03120000
C        0.01500000       0.00350000       0.00480000
C        0.74630000      -0.47170000      -1.24780000
O        0.98620000      -1.88570000      -1.25060000
C        1.36960000      -2.51210000      -0.09680000
N        2.04350000      -3.58350000      -0.13120000
C        0.83590000      -1.93930000       1.21400000
C        1.65380000      -2.38830000       2.42080000
N        0.69020000      -0.47830000       1.20940000
H        0.86800000       2.00420000       0.02280000
H       -0.67430000       1.88840000      -0.83760000
H       -0.63910000       1.83850000       0.93830000
H       -0.98860000      -0.44500000       0.00570000
H        0.17430000      -0.27230000      -2.15920000
H        1.71270000       0.04960000      -1.33070000
H        2.26340000      -3.82390000      -1.10090000
H       -0.18340000      -2.34490000       1.31200000
H        2.67820000      -2.00560000       2.35830000
H        1.19350000      -2.00760000       3.33610000
H        1.71370000      -3.47570000       2.45950000
H        1.61210000      -0.04960000       1.27350000
