16
Properties=species:S:1:pos:R:3 pbc="F F F"
N       -0.08900000       1.10160000       0.01990000
H       -0.72500000       0.71130000      -0.66780000
H        1.16190000       0.08420000       0.80320000
H        0.36920000       1.91140000      -0.38400000
C       -0.78070000       1.44680000       1.24040000
C       -1.36840000       0.29810000       2.03160000
C       -1.29560000      -1.04280000       1.53270000
C       -1.27680000      -2.16510000       1.10170000
C       -0.13350000       1.05250000       2.55400000
C        1.21830000       0.38890000       2.67960000
O        1.78870000       0.35880000       3.73960000
O        1.73510000      -0.15380000       1.57340000
H       -1.35600000       2.37100000       1.24740000
H       -2.28280000       0.52640000       2.57090000
H       -1.23800000      -3.16400000       0.74290000
H       -0.33270000       1.69230000       3.40460000
