20
Properties=species:S:1:pos:R:3 pbc="F F F"
C       -0.06180000       1.29180000       0.10470000
O        0.07530000      -0.12500000      -0.00650000
C        0.64250000      -0.54750000      -1.16840000
O        1.01750000       0.19280000      -2.05320000
N        0.70490000      -1.90290000      -1.18990000
C        1.39610000      -2.62630000      -2.24690000
C        2.90540000      -2.73300000      -1.98700000
C        0.73190000      -3.99340000      -2.39540000
O        0.82460000      -4.65290000      -1.13630000
H        0.91140000       1.78600000       0.04220000
H       -0.70420000       1.68700000      -0.68700000
H       -0.51410000       1.46920000       1.08130000
H        0.46930000      -2.41410000      -0.35400000
H        1.23350000      -2.06350000      -3.17080000
H        3.40750000      -3.22530000      -2.82670000
H        3.33260000      -1.73400000      -1.87130000
H        3.10140000      -3.31290000      -1.08130000
H       -0.31810000      -3.85780000      -2.69130000
H        1.24340000      -4.56460000      -3.18410000
H        0.32680000      -5.47350000      -1.18240000
