15
Properties=species:S:1:pos:R:3 pbc="F F F"
C       -0.01710000       1.55540000       0.05490000
C        0.00930000       0.05900000       0.08050000
N       -1.23260000      -0.72260000       0.07580000
C       -0.70560000      -1.68600000       0.96450000
O       -1.16530000      -2.68400000       1.42910000
C        0.61310000      -0.92250000       1.06760000
C        1.18800000      -0.79130000      -0.35730000
C        1.06140000      -1.82430000      -1.35120000
N        0.93810000      -2.63130000      -2.17040000
H        0.97650000       1.96540000       0.25560000
H       -0.33950000       1.92310000      -0.92510000
H       -0.71410000       1.93430000       0.80750000
H       -1.73570000      -0.97410000      -0.76890000
H        1.23330000      -0.75890000       1.93760000
H        2.14160000      -0.26970000      -0.38370000
