16
Properties=species:S:1:pos:R:3 pbc="F F F"
C       -0.47450000      -1.12160000      -0.68670000
C       -0.26980000      -0.00450000      -0.29540000
C       -0.01810000       1.34380000       0.17620000
C       -0.22310000       1.57320000       1.69320000
C        0.65170000       2.81080000       1.97860000
O        1.49410000       3.00760000       0.82600000
C        1.43760000       1.86360000       0.00630000
C        2.44820000       0.85850000       0.40910000
N        3.25020000       0.09910000       0.74770000
H       -0.64660000      -2.11160000      -1.03090000
H       -0.64570000       2.05070000      -0.37940000
H       -1.27360000       1.72840000       1.94380000
H        0.13290000       0.70030000       2.24480000
H        0.06560000       3.72610000       2.10300000
H        1.27340000       2.67240000       2.86960000
H        1.64840000       2.17050000      -1.02170000
