20
Properties=species:S:1:pos:R:3 pbc="F F F"
C        0.23240000       0.84750000       0.81940000
C       -0.20080000       0.32640000      -0.55710000
C       -1.50170000      -0.45130000      -0.47910000
N       -2.04840000      -1.14050000      -1.75380000
C       -1.04240000      -2.27420000      -1.45070000
C       -1.59330000      -1.95680000      -0.04830000
C       -2.96510000      -1.89160000      -0.77160000
C       -1.25030000      -2.57670000       1.26650000
O       -0.38540000      -3.40460000       1.41880000
H        1.13870000       1.45440000       0.74010000
H       -0.54610000       1.46960000       1.27460000
H        0.44660000       0.02290000       1.50790000
H       -0.36630000       1.16920000      -1.24010000
H        0.60770000      -0.26720000      -0.99180000
H       -2.27250000       0.18800000      -0.03180000
H       -1.32790000      -3.22970000      -1.89600000
H       -0.00620000      -2.03560000      -1.68290000
H       -3.75300000      -1.26850000      -0.34080000
H       -3.36200000      -2.82630000      -1.17460000
H       -1.85610000      -2.21060000       2.12890000
