25
Properties=species:S:1:pos:R:3 pbc="F F F"
C        0.06840000       1.55700000       0.04630000
C       -0.00580000       0.02160000       0.06500000
C        0.64010000      -0.50350000       1.35670000
C       -1.45430000      -0.49780000      -0.13410000
C       -2.08690000       0.01580000      -1.44070000
C       -1.51860000      -2.02030000      -0.12060000
C       -1.76150000      -2.81260000       1.15130000
C       -2.82370000      -2.73630000       0.08520000
O       -3.95570000      -1.93870000       0.29750000
H        1.09300000       1.89360000       0.23660000
H       -0.24250000       1.98110000      -0.91130000
H       -0.56980000       1.98850000       0.82740000
H        0.59090000      -0.35150000      -0.78180000
H        0.06880000      -0.18510000       2.23740000
H        0.69990000      -1.59370000       1.37580000
H        1.65610000      -0.10920000       1.46520000
H       -2.06430000      -0.12800000       0.70040000
H       -3.09480000      -0.39000000      -1.55250000
H       -2.16220000       1.10590000      -1.46090000
H       -1.49480000      -0.29390000      -2.31110000
H       -0.85570000      -2.48960000      -0.84590000
H       -1.23410000      -3.74790000       1.30800000
H       -1.94570000      -2.23920000       2.05420000
H       -3.00860000      -3.62930000      -0.51210000
H       -4.50880000      -2.37560000       0.95300000
