14
Properties=species:S:1:pos:R:3 pbc="F F F"
C       -0.06760000       1.72610000      -0.27460000
O        1.11890000       1.69380000       0.54360000
C        1.61380000       0.44380000       0.49280000
N        2.33590000      -0.16090000       1.35770000
C        2.25580000      -1.52900000       0.95270000
C        1.43760000      -1.76590000      -0.09480000
O       -1.40980000      -0.16170000      -1.07180000
C       -0.35420000       0.26270000      -0.70640000
C        1.01240000      -0.41320000      -0.58180000
H       -0.89170000       2.14350000       0.30900000
H        0.09960000       2.35340000      -1.15830000
H        2.81720000      -2.25710000       1.52350000
H        1.24190000      -2.70670000      -0.58470000
H        1.49870000      -0.18970000      -1.54820000
