18
Properties=species:S:1:pos:R:3 pbc="F F F"
C       -0.20080000       1.51350000      -0.06600000
C       -0.03490000       0.03290000      -0.11340000
N       -0.35080000      -0.73310000      -1.07700000
C        0.05030000      -2.09250000      -0.67030000
C        1.26880000      -2.59070000      -1.41320000
C        2.30840000      -2.78740000      -0.60540000
C        1.99520000      -2.49210000       0.84270000
C        0.55440000      -1.94340000       0.80010000
O        0.51510000      -0.51350000       1.01100000
H        0.77080000       1.99770000       0.07560000
H       -0.65110000       1.86220000      -0.99450000
H       -0.83230000       1.79830000       0.78130000
H       -0.80460000      -2.76890000      -0.78190000
H        1.26060000      -2.73490000      -2.48680000
H        3.28570000      -3.13480000      -0.92250000
H        2.05820000      -3.39520000       1.46320000
H        2.67630000      -1.75870000       1.28850000
H       -0.09330000      -2.39920000       1.55280000
