19
Properties=species:S:1:pos:R:3 pbc="F F F"
C       -0.37930000       1.31860000       0.14730000
C        0.06720000      -0.13510000       0.06870000
C        0.93750000      -0.59510000      -1.13320000
O        2.00430000      -0.99140000      -0.20390000
C        1.28180000      -0.52910000       0.88460000
N        1.59400000      -0.46000000       2.09560000
C        0.45730000      -1.74030000      -1.98080000
C        1.39670000      -2.79370000      -2.43200000
N        0.35670000      -3.09570000      -1.42700000
H        0.45370000       2.00010000      -0.05160000
H       -1.17300000       1.52450000      -0.57760000
H       -0.76250000       1.54130000       1.14670000
H       -0.77350000      -0.81300000       0.24550000
H        1.28660000       0.23410000      -1.75940000
H        2.53770000      -0.81300000       2.26320000
H       -0.37160000      -1.46500000      -2.63190000
H        1.25680000      -3.26980000      -3.39790000
H        2.42580000      -2.72430000      -2.09230000
H        0.79810000      -3.11210000      -0.50930000
