19
Properties=species:S:1:pos:R:3 pbc="F F F"
C       -0.04700000       1.58990000       0.03880000
C        0.01580000       0.06440000      -0.00610000
C        1.01520000      -0.52550000      -1.04460000
C        1.92840000      -1.32200000      -0.09250000
C        2.28970000      -2.74070000      -0.61870000
O        0.93320000      -3.14250000      -0.14730000
C        1.08030000      -2.04280000       0.85040000
C        0.67590000      -0.55930000       1.22430000
O        2.14120000      -0.29310000       0.99700000
H        0.94520000       2.00300000       0.24280000
H       -0.39660000       1.99400000      -0.91670000
H       -0.73180000       1.94070000       0.81850000
H       -0.98910000      -0.34870000      -0.14440000
H        0.53430000      -1.16070000      -1.79020000
H        1.59430000       0.24920000      -1.55520000
H        2.39690000      -2.88170000      -1.69710000
H        3.06790000      -3.27160000      -0.06200000
H        1.62680000      -2.45330000       1.70350000
H        0.35710000      -0.27550000       2.22860000
