21
Properties=species:S:1:pos:R:3 pbc="F F F"
C        0.00050000       1.51870000       0.07800000
C        0.02710000      -0.00090000       0.01780000
C        0.71150000      -0.53500000      -1.25920000
C        0.87350000      -2.04490000      -1.19200000
O        0.56550000      -2.78380000      -2.09780000
C        1.43060000      -2.54080000       0.13250000
C        0.69870000      -1.87430000       1.31760000
C        1.33460000      -2.20240000       2.65990000
O        0.71170000      -0.46130000       1.17400000
H        1.02010000       1.91660000       0.07410000
H       -0.53680000       1.92850000      -0.78210000
H       -0.49570000       1.85360000       0.99270000
H       -1.00810000      -0.38450000       0.03960000
H        0.14910000      -0.27290000      -2.15880000
H        1.70940000      -0.08080000      -1.32540000
H        1.35270000      -3.63020000       0.17060000
H        2.49190000      -2.26340000       0.18900000
H       -0.34870000      -2.22370000       1.31570000
H        2.36980000      -1.84800000       2.68620000
H        0.78410000      -1.71610000       3.46950000
H        1.33140000      -3.28240000       2.83340000
