17
Properties=species:S:1:pos:R:3 pbc="F F F"
C        0.14600000       1.38090000      -0.42600000
C        0.02480000       0.00100000       0.24280000
O        0.43000000       0.06890000       1.58860000
C       -1.39370000      -0.53750000       0.13140000
N       -2.10100000      -0.58270000       1.26050000
C       -3.35590000      -1.03230000       1.18340000
C       -3.90730000      -1.44210000      -0.02420000
N       -3.20800000      -1.41070000      -1.16340000
C       -1.95980000      -0.95910000      -1.07770000
H        1.16840000       1.74790000      -0.30630000
H       -0.08610000       1.33430000      -1.49510000
H       -0.53540000       2.09240000       0.05030000
H        0.69300000      -0.69760000      -0.28420000
H       -0.37890000      -0.03850000       2.11330000
H       -3.92770000      -1.06860000       2.10660000
H       -4.92840000      -1.80860000      -0.07830000
H       -1.38070000      -0.93570000      -1.99800000
