16
Properties=species:S:1:pos:R:3 pbc="F F F"
C       -0.03520000       1.41780000      -0.03180000
O       -0.04010000       0.00530000       0.12780000
C       -1.28060000      -0.58810000      -0.01930000
O       -1.73820000      -0.50450000      -1.38990000
C       -1.64270000      -1.76900000      -1.88440000
N       -1.33920000      -2.72480000      -1.11370000
C       -1.15590000      -2.12310000       0.20770000
C        0.16420000      -2.50020000       0.87940000
O        0.99730000      -3.21450000       0.39850000
H        0.98130000       1.75370000       0.17810000
H       -0.31230000       1.70130000      -1.05260000
H       -0.72870000       1.89560000       0.67490000
H       -2.03860000      -0.08110000       0.59090000
H       -1.85900000      -1.85460000      -2.94310000
H       -1.95460000      -2.46840000       0.87980000
H        0.27640000      -2.06710000       1.89750000
