20
Properties=species:S:1:pos:R:3 pbc="F F F"
C       -0.37910000       1.39890000       0.07010000
C        0.08760000      -0.05790000      -0.04770000
C        0.98960000      -0.26320000      -1.27160000
C        0.77340000      -0.53310000       1.24060000
C       -0.11070000      -1.03110000       2.37520000
C        0.69950000      -2.01480000       1.58100000
C        1.97910000       0.16480000       1.60600000
C        2.98540000       0.75660000       1.89940000
H        0.47510000       2.06810000       0.21510000
H       -0.90550000       1.71300000      -0.83690000
H       -1.05660000       1.53180000       0.91960000
H       -0.80130000      -0.69210000      -0.16880000
H        1.90230000       0.33500000      -1.18400000
H        1.28530000      -1.31200000      -1.37610000
H        0.47410000       0.03770000      -2.18930000
H        0.20010000      -0.81060000       3.38930000
H       -1.18250000      -0.99400000       2.21070000
H        0.18390000      -2.65330000       0.87120000
H        1.56390000      -2.46670000       2.05240000
H        3.87340000       1.27560000       2.16250000
