19
Properties=species:S:1:pos:R:3 pbc="F F F"
O        0.04900000       1.36750000       0.36030000
C       -0.04710000       0.05890000      -0.16900000
C       -1.42680000      -0.52460000       0.01930000
C       -1.79400000      -1.19320000       1.32230000
C       -1.62950000      -2.01410000       0.05420000
O       -2.78870000      -2.54910000      -0.52320000
C       -3.30370000      -1.74200000      -1.57320000
C       -3.55630000      -0.32770000      -1.07640000
O       -2.34390000       0.29420000      -0.66820000
H       -0.68580000       1.86420000      -0.01760000
H        0.19870000       0.04250000      -1.24320000
H        0.69360000      -0.55200000       0.35630000
H       -1.03650000      -1.25180000       2.09610000
H       -2.81160000      -1.09530000       1.68380000
H       -0.76590000      -2.66920000      -0.04720000
H       -2.60910000      -1.71870000      -2.42690000
H       -4.23860000      -2.21030000      -1.89350000
H       -3.96960000       0.30080000      -1.87100000
H       -4.27750000      -0.35530000      -0.24570000
