19
Properties=species:S:1:pos:R:3 pbc="F F F"
N        0.64530000       0.97510000       1.65620000
C       -0.00890000       0.33340000       0.78000000
C       -1.42090000      -0.14560000       1.05840000
C       -2.42950000       0.18780000      -0.02630000
C       -2.73150000      -0.78930000      -1.14800000
C       -3.75130000      -0.52840000      -0.06750000
N        0.46000000      -0.02980000      -0.50650000
C        1.69950000       0.22040000      -1.03610000
O        2.61480000       0.77900000      -0.47370000
H        1.58180000       1.19880000       1.31700000
H       -1.40240000      -1.23470000       1.20740000
H       -1.70920000       0.30360000       2.01170000
H       -2.45560000       1.23890000      -0.30150000
H       -2.92180000      -0.39910000      -2.14180000
H       -2.23650000      -1.75660000      -1.13700000
H       -3.92390000      -1.31330000       0.66140000
H       -4.63680000       0.04110000      -0.32520000
H       -0.21040000      -0.47510000      -1.11620000
H        1.77900000      -0.16030000      -2.07320000
