14
Properties=species:S:1:pos:R:3 pbc="F F F"
C        0.00690000       1.46820000       0.02490000
C       -0.00330000       0.01400000      -0.04910000
C       -0.00010000      -1.18840000      -0.11300000
C       -0.02700000      -2.64380000      -0.18320000
C       -1.41590000      -3.22110000       0.11070000
O       -1.30890000      -4.63150000       0.01170000
H        0.70760000       1.82460000       0.78820000
H        0.30400000       1.91490000      -0.93060000
H       -0.98410000       1.86130000       0.27820000
H        0.28540000      -2.98820000      -1.17680000
H        0.68400000      -3.07790000       0.53070000
H       -1.73690000      -2.90600000       1.11480000
H       -2.13990000      -2.81530000      -0.61160000
H       -2.17240000      -5.01300000       0.19320000
