21
Properties=species:S:1:pos:R:3 pbc="F F F"
C       -0.04200000       1.47920000       0.02390000
C        0.02190000      -0.03750000      -0.00690000
C       -1.29090000      -0.81160000       0.33290000
C       -0.56180000      -1.55140000       1.49630000
C        0.75750000      -0.80360000       1.15220000
C        1.82760000      -1.50370000       0.28850000
C        1.06560000      -2.08980000      -0.92010000
C        0.90390000      -0.57550000      -1.16360000
O        2.24380000      -0.39650000      -0.58470000
H        0.96020000       1.90550000      -0.08100000
H       -0.66830000       1.86480000      -0.79020000
H       -0.46810000       1.84090000       0.96620000
H       -2.09910000      -0.15690000       0.66880000
H       -1.68520000      -1.44710000      -0.46500000
H       -0.95650000      -1.30420000       2.48420000
H       -0.51830000      -2.64110000       1.41720000
H        1.20410000      -0.20890000       1.95100000
H        2.65610000      -2.01790000       0.77630000
H        1.75480000      -2.53150000      -1.64000000
H        0.19220000      -2.72670000      -0.77240000
H        0.78890000      -0.13710000      -2.15630000
