17
Properties=species:S:1:pos:R:3 pbc="F F F"
C       -0.05860000       1.43320000       0.72840000
C       -0.07790000       0.24930000      -0.27060000
C        0.86080000      -0.80260000       0.15920000
N        1.60870000      -1.61150000       0.50640000
C       -1.42130000      -0.30190000      -0.45970000
C       -2.53280000      -0.74030000      -0.61250000
C       -3.86410000      -1.25180000      -0.77720000
C       -4.10390000      -2.72660000      -0.72780000
N       -4.56890000      -1.87560000       0.36990000
H        0.95360000       1.83440000       0.81930000
H       -0.72610000       2.21890000       0.36850000
H       -0.39960000       1.10620000       1.71260000
H        0.28780000       0.61530000      -1.24020000
H       -4.51710000      -0.64860000      -1.40250000
H       -4.88990000      -3.15040000      -1.34600000
H       -3.24090000      -3.36680000      -0.57180000
H       -3.92390000      -1.94520000       1.15370000
