18
Properties=species:S:1:pos:R:3 pbc="F F F"
C        0.04110000       1.59930000       0.04760000
C        0.05500000       0.09010000      -0.02870000
O       -1.11410000      -0.51500000       0.46460000
C        0.62340000      -0.67610000      -1.18830000
C        1.39520000      -0.02040000      -2.31050000
O        2.52190000       0.77380000      -1.88500000
C        3.07070000       0.53350000      -0.67000000
N        2.60600000      -0.12390000       0.30700000
C        1.32740000      -0.73920000       0.15500000
H        0.90810000       2.05340000      -0.43310000
H       -0.86200000       1.97820000      -0.44150000
H        0.02380000       1.93120000       1.09240000
H       -1.16580000      -0.32780000       1.40910000
H        0.04780000      -1.54460000      -1.49210000
H        1.78430000      -0.80080000      -2.97510000
H        0.77600000       0.65480000      -2.90980000
H        4.03350000       1.03480000      -0.59680000
H        1.19740000      -1.63320000       0.75560000
