18
Properties=species:S:1:pos:R:3 pbc="F F F"
C       -0.38790000       1.00590000      -0.23790000
C        1.03800000       1.11490000       0.25040000
C        0.44420000      -0.23910000       0.00130000
N        0.18890000      -1.10520000       1.10990000
C       -0.99130000      -1.83720000       1.15780000
C       -1.92310000      -2.01250000       0.17340000
O       -2.91000000      -2.86360000       0.60510000
C       -2.60090000      -3.21450000       1.87160000
C       -1.44280000      -2.62890000       2.27160000
H       -1.17930000       1.21290000       0.47300000
H       -0.60810000       1.29360000      -1.26020000
H        1.80120000       1.47390000      -0.43070000
H        1.19180000       1.41450000       1.28260000
H        0.78500000      -0.76460000      -0.88930000
H        0.52490000      -0.77910000       2.00200000
H       -2.02280000      -1.64040000      -0.83000000
H       -3.29210000      -3.88270000       2.35880000
H       -0.95710000      -2.74080000       3.22890000
