19
Properties=species:S:1:pos:R:3 pbc="F F F"
O        0.16040000       1.37710000       0.03960000
C        0.10820000      -0.03150000       0.01870000
C       -1.33890000      -0.55470000       0.01860000
C       -1.53380000      -2.05700000      -0.08040000
C       -1.15830000      -2.89400000       1.12090000
C       -2.59680000      -2.49220000       0.91860000
C       -3.07420000      -1.27120000       1.68110000
C       -2.08830000      -0.16330000       1.30050000
O       -1.90300000       0.85510000       1.92720000
H       -0.36120000       1.65030000       0.80760000
H        0.61520000      -0.35890000      -0.89530000
H        0.65370000      -0.47520000       0.86770000
H       -1.86300000      -0.05780000      -0.81160000
H       -1.48170000      -2.51840000      -1.05950000
H       -0.89610000      -3.93060000       0.94240000
H       -0.59960000      -2.43410000       1.93170000
H       -3.31710000      -3.25680000       0.65430000
H       -4.07450000      -0.95970000       1.35100000
H       -3.11690000      -1.38500000       2.76850000
