13
Properties=species:S:1:pos:R:3 pbc="F F F"
N       -0.00380000       1.34300000       0.22630000
C        0.05190000      -0.05610000      -0.08350000
C       -1.30660000      -0.81460000      -0.27850000
O       -0.83870000      -1.32500000      -1.56160000
C        0.31760000      -0.55810000      -1.50270000
N        1.19890000      -0.33780000      -2.36010000
C       -1.63720000      -1.87500000       0.66280000
N       -1.88660000      -2.70040000       1.43190000
H        0.88630000       1.67160000       0.58030000
H       -0.22410000       1.89610000      -0.59550000
H        0.68070000      -0.57240000       0.64500000
H       -2.15730000      -0.14130000      -0.41330000
H        1.02130000      -0.82900000      -3.23750000
