12
Properties=species:S:1:pos:R:3 pbc="F F F"
O       -0.09650000       1.48310000       0.00990000
C       -0.02580000       0.06880000       0.00300000
C       -1.36850000      -0.49130000       0.01240000
C       -2.46720000      -0.99340000       0.01970000
C       -3.80370000      -1.53160000       0.02930000
O       -4.07170000      -2.70990000       0.02670000
C       -4.91700000      -0.45170000       0.04430000
O       -6.07830000      -0.74340000       0.05350000
H        0.80520000       1.82030000       0.00580000
H        0.49890000      -0.31440000      -0.88780000
H        0.51460000      -0.32230000       0.88100000
H       -4.55210000       0.59790000       0.04580000
