19
Properties=species:S:1:pos:R:3 pbc="F F F"
C       -0.20470000       1.49200000       0.12070000
C        0.07730000       0.00560000       0.17360000
O        0.99100000      -0.45290000      -0.87610000
C        1.79300000      -1.12950000       0.09890000
C        2.41760000      -0.16010000       1.04680000
C        0.97670000      -0.59560000       1.25590000
C        2.29550000      -2.48120000      -0.24780000
C        3.70610000      -2.71550000      -0.59400000
O        3.19520000      -3.06720000       0.69340000
H        0.70660000       2.07910000       0.25960000
H       -0.64190000       1.75970000      -0.84650000
H       -0.91910000       1.76610000       0.90450000
H       -0.85810000      -0.56290000       0.09010000
H        3.11120000      -0.60100000       1.75500000
H        2.66330000       0.84210000       0.70810000
H        0.64040000      -1.08580000       2.15950000
H        1.54550000      -3.16250000      -0.65100000
H        3.96930000      -3.55460000      -1.23580000
H        4.39430000      -1.87260000      -0.60650000
