20
Properties=species:S:1:pos:R:3 pbc="F F F"
C       -0.24700000       1.45640000       0.02300000
C       -0.13080000      -0.03610000      -0.02820000
C       -0.15680000      -0.80160000      -1.12560000
C        0.05860000      -2.26600000      -0.82930000
O        1.31060000      -2.73390000      -1.33840000
C       -0.05920000      -2.33440000       0.71580000
C        0.02870000      -0.88480000       1.19690000
C        0.84500000      -0.43840000       2.36330000
N       -0.61630000      -0.55000000       2.48160000
H        0.63630000       1.91540000       0.48340000
H       -0.35790000       1.87570000      -0.97970000
H       -1.11500000       1.77660000       0.61310000
H       -0.24470000      -0.43030000      -2.14120000
H       -0.67870000      -2.91050000      -1.31820000
H        1.98140000      -2.09600000      -1.07020000
H       -1.02780000      -2.74530000       1.01500000
H        0.71780000      -2.98160000       1.12990000
H        1.40710000      -1.17760000       2.92860000
H        1.29680000       0.55030000       2.34200000
H       -1.03810000       0.37510000       2.43860000
