18
Properties=species:S:1:pos:R:3 pbc="F F F"
C        0.25890000       1.49370000       0.11060000
O        1.21550000       0.46930000      -0.16530000
C       -0.15380000       0.08810000      -0.00480000
C       -0.48160000      -0.74170000       1.19480000
C        0.30230000      -0.56180000       2.51540000
N        0.32910000      -2.04510000       2.71170000
C       -0.27650000      -2.27240000       1.37720000
C       -1.81040000      -2.33390000       1.44510000
O       -1.90790000      -0.88420000       1.37170000
H        0.33710000       1.95270000       1.09470000
H        0.05670000       2.17940000      -0.71020000
H       -0.64950000      -0.22730000      -0.92330000
H        1.28870000      -0.11480000       2.35110000
H       -0.22990000      -0.02060000       3.30350000
H        1.27240000      -2.40830000       2.77690000
H        0.25550000      -2.93280000       0.69110000
H       -2.30180000      -2.80280000       0.58320000
H       -2.21840000      -2.73360000       2.37860000
