18
Properties=species:S:1:pos:R:3 pbc="F F F"
C       -0.07830000       1.57910000       0.14840000
C        1.45040000       1.42310000      -0.02410000
C        1.79560000       0.60900000       1.26470000
C        0.61030000      -0.44300000       1.28810000
C       -0.03600000       0.01040000      -0.01170000
N       -1.08390000      -0.59840000      -0.81330000
C       -0.72260000      -0.31170000      -2.00100000
O        0.47030000       0.33680000      -2.22100000
C        1.16710000       0.22870000      -0.95830000
H       -0.44710000       1.98280000       1.09400000
H       -0.56790000       2.06560000      -0.69400000
H        2.11420000       2.25070000      -0.27250000
H        2.77240000       0.12110000       1.20050000
H        1.80030000       1.25520000       2.14590000
H        0.96770000      -1.47500000       1.24610000
H       -0.03540000      -0.33490000       2.16250000
H       -1.28400000      -0.52090000      -2.90480000
H        1.94790000      -0.53190000      -1.06790000
