24
Properties=species:S:1:pos:R:3 pbc="F F F"
C        1.14870000       0.91990000       0.91980000
C        0.95120000      -0.51180000       0.41600000
C        1.44210000      -0.77480000      -1.03090000
C        0.75790000       0.17850000      -2.01340000
O        2.84480000      -0.46820000      -1.12340000
C        1.22480000      -2.27300000      -1.31000000
C        0.32790000      -2.83570000      -2.36570000
N        1.76480000      -3.03710000      -2.43600000
C        2.51810000      -2.41830000      -3.51850000
H        2.17840000       1.24540000       0.74860000
H        0.48200000       1.62850000       0.41990000
H        0.94340000       0.98010000       1.99290000
H        1.49560000      -1.20020000       1.07700000
H       -0.10510000      -0.80160000       0.48630000
H        1.03190000       1.20850000      -1.77450000
H        1.06450000      -0.00860000      -3.04290000
H       -0.32940000       0.08320000      -1.95220000
H        3.31910000      -1.10040000      -0.57190000
H        1.29480000      -2.85410000      -0.38850000
H       -0.27980000      -3.71590000      -2.16610000
H       -0.11940000      -2.13190000      -3.06620000
H        2.06740000      -1.50950000      -3.93920000
H        3.51930000      -2.16160000      -3.16630000
H        2.60920000      -3.15170000      -4.32680000
