14
Properties=species:S:1:pos:R:3 pbc="F F F"
O        0.36540000      -0.04350000       1.01340000
C        0.45230000       0.32530000      -0.08530000
O        0.57520000       0.67700000      -1.18840000
C       -2.09490000       2.45980000       0.24580000
C       -1.90400000       3.22040000      -1.05220000
N       -2.42230000       1.98580000      -1.76260000
C       -2.47080000       1.38190000      -0.47490000
N       -2.77880000       0.04980000      -0.27970000
H       -3.48710000      -0.29340000      -0.91640000
H       -2.99560000      -0.18730000       0.67900000
H       -2.10880000       2.73200000       1.28840000
H       -2.53970000       4.09480000      -1.22920000
H       -0.87230000       3.45590000      -1.33690000
H       -1.73920000       1.56490000      -2.39160000
