17
Properties=species:S:1:pos:R:3 pbc="F F F"
N       -0.08350000      -1.11360000      -0.24440000
C       -0.04490000       0.03420000      -0.12360000
C       -0.01580000       1.50100000      -0.01140000
N       -0.74410000       1.92590000       1.17840000
C       -0.71370000       3.37720000       1.34380000
C        0.69990000       3.82670000       1.73240000
C        1.75860000       3.17240000       0.86090000
O        2.14480000       1.83820000       1.22230000
C        1.42420000       2.01240000       0.01790000
H       -0.45320000       1.89960000      -0.94960000
H       -1.69560000       1.58110000       1.13680000
H       -1.02500000       3.90880000       0.42420000
H       -1.42530000       3.64610000       2.12910000
H        0.77610000       4.91530000       1.64550000
H        0.90560000       3.56260000       2.77470000
H        2.59730000       3.79770000       0.55650000
H        1.98230000       1.81650000      -0.89750000
