17
Properties=species:S:1:pos:R:3 pbc="F F F"
C        0.08370000       1.56130000       0.01720000
C        0.00420000       0.03940000       0.00160000
O        0.72320000      -0.56270000       1.05890000
C       -1.46590000      -0.44940000       0.03900000
O       -2.11770000       0.07420000      -1.11160000
C       -3.46930000      -0.06170000      -1.17540000
N       -4.09130000       0.46850000      -2.13100000
C       -1.53970000      -1.92170000       0.07230000
N       -1.63920000      -3.07240000       0.08270000
H        1.13000000       1.87320000      -0.02800000
H       -0.45350000       1.99060000      -0.83070000
H       -0.35670000       1.96400000       0.93890000
H        0.44830000      -0.34850000      -0.92080000
H        0.54240000      -0.07470000       1.87010000
H       -1.94020000      -0.06540000       0.95480000
H       -3.89190000      -0.65160000      -0.35290000
H       -5.08810000       0.27760000      -2.05260000
