20
Properties=species:S:1:pos:R:3 pbc="F F F"
C        0.45060000       1.30270000      -0.21410000
C        0.05810000      -0.17550000      -0.11740000
C       -1.44960000      -0.45900000       0.05860000
C       -2.27320000      -0.23080000      -1.21260000
O       -2.29010000       1.15330000      -1.52850000
C       -1.67150000      -1.90700000       0.54840000
C       -1.16870000      -2.12090000       1.95830000
O       -0.43380000      -3.00720000       2.30900000
H        1.53770000       1.40380000      -0.29500000
H       -0.01290000       1.78370000      -1.07590000
H        0.13300000       1.85030000       0.68040000
H        0.40940000      -0.71460000      -1.00840000
H        0.59570000      -0.62600000       0.72670000
H       -1.84980000       0.22490000       0.82180000
H       -1.84070000      -0.82290000      -2.03630000
H       -3.29850000      -0.60030000      -1.04890000
H       -2.76420000       1.26690000      -2.35740000
H       -2.74970000      -2.12570000       0.56480000
H       -1.19070000      -2.63850000      -0.10930000
H       -1.54950000      -1.36980000       2.69150000
