19
Properties=species:S:1:pos:R:3 pbc="F F F"
C        0.02680000       1.57530000       0.12700000
C       -0.01650000       0.07660000       0.06970000
C        1.16650000      -0.77120000      -0.36520000
C        0.58190000      -0.96410000       1.00490000
O        1.29400000      -0.74610000       2.16750000
C       -0.70240000      -1.82020000       0.94410000
C       -1.29050000      -0.76760000      -0.07480000
C       -0.59050000      -3.20850000       0.53760000
C       -0.47690000      -4.35250000       0.18180000
H        0.99820000       1.92330000       0.49200000
H       -0.13800000       2.01910000      -0.86200000
H       -0.74290000       1.96890000       0.80060000
H        1.06730000      -1.53170000      -1.13670000
H        2.11540000      -0.24320000      -0.36260000
H        2.00340000      -1.39650000       2.21780000
H       -1.23140000      -1.74460000       1.89880000
H       -2.18660000      -0.28050000       0.31660000
H       -1.49920000      -1.15470000      -1.07590000
H       -0.38550000      -5.36490000      -0.12480000
