22
Properties=species:S:1:pos:R:3 pbc="F F F"
C       -0.60820000      -0.37250000      -0.90860000
C       -0.10770000       0.46340000       0.26930000
O       -1.14730000       0.64110000       1.23420000
C        1.05990000      -0.07850000       1.09550000
C        1.12180000      -1.52140000       1.66140000
C        2.54630000      -1.57150000       1.09160000
C        3.75980000      -2.02670000       1.84520000
C        2.48820000      -1.39600000      -0.36830000
N        2.42950000      -0.17570000       0.47580000
H       -0.87710000      -1.38670000      -0.59840000
H       -1.50530000       0.09500000      -1.33310000
H        0.13210000      -0.42530000      -1.71090000
H        0.22100000       1.44210000      -0.12050000
H       -1.92590000       0.97070000       0.77480000
H        1.16110000       0.62860000       1.92350000
H        1.06580000      -1.55480000       2.75070000
H        0.42910000      -2.26480000       1.25680000
H        3.76490000      -3.11840000       1.95040000
H        4.67420000      -1.73180000       1.32250000
H        3.78810000      -1.59370000       2.85110000
H        3.42210000      -1.45130000      -0.92040000
H        1.62110000      -1.73290000      -0.92680000
