19
Properties=species:S:1:pos:R:3 pbc="F F F"
O       -0.56260000       1.68780000       1.30820000
C        0.17490000       1.26910000       0.45310000
C        1.42330000       1.96940000      -0.03140000
C        1.25010000       2.45090000      -1.48150000
C        0.32050000       3.69110000      -1.63300000
C        1.58880000       4.60130000      -1.73500000
C        2.43470000       3.31300000      -2.00450000
C        1.60520000       5.65800000      -2.72400000
C        1.61240000       6.51920000      -3.56390000
H       -0.04760000       0.31070000      -0.07370000
H        1.63870000       2.80440000       0.64270000
H        2.26030000       1.25880000       0.01180000
H        0.98870000       1.59910000      -2.11660000
H       -0.23620000       3.67950000      -2.57200000
H       -0.36870000       3.90210000      -0.81230000
H        1.83520000       5.01510000      -0.75180000
H        3.38680000       3.23270000      -1.47420000
H        2.60950000       3.16960000      -3.07270000
H        1.61950000       7.28540000      -4.29880000
