20
Properties=species:S:1:pos:R:3 pbc="F F F"
C        0.00690000       1.47380000      -0.09600000
C        0.03970000      -0.04110000       0.12080000
O        0.68420000      -0.37400000       1.35190000
C       -1.34960000      -0.64590000       0.04110000
C       -1.99700000      -1.22490000      -1.19250000
C       -0.99000000      -1.98540000      -2.06740000
C       -0.61930000      -2.88190000      -0.84070000
C       -1.64730000      -2.11920000       0.00600000
H        1.01420000       1.89190000      -0.01920000
H       -0.40330000       1.72020000      -1.08090000
H       -0.62270000       1.96030000       0.65960000
H        0.68420000      -0.48700000      -0.64260000
H        0.09450000      -0.11390000       2.06810000
H       -2.07260000      -0.10110000       0.65120000
H       -2.96850000      -0.88000000      -1.52750000
H       -1.48290000      -2.56060000      -2.85430000
H       -0.18860000      -1.39850000      -2.52800000
H       -0.89500000      -3.92630000      -1.00060000
H        0.41390000      -2.84650000      -0.48370000
H       -2.31200000      -2.57300000       0.73180000
