17
Properties=species:S:1:pos:R:3 pbc="F F F"
C       -0.00630000       1.47970000      -0.25370000
C        1.34730000       2.18660000       0.01950000
N        1.96860000       2.07970000       1.32830000
C        1.35970000       1.72140000       2.36530000
O        0.00970000       1.47950000       2.49480000
C       -0.33750000       0.09500000       2.54260000
C       -0.14820000      -0.59590000       1.22000000
C       -0.00070000      -0.00420000       0.03330000
H       -0.79530000       1.97840000       0.30980000
H       -0.22380000       1.63130000      -1.31770000
H        2.09210000       1.81430000      -0.69490000
H        1.23580000       3.25600000      -0.20390000
H        1.90970000       1.61300000       3.30480000
H        0.24740000      -0.41930000       3.32240000
H       -1.38610000       0.06830000       2.86260000
H       -0.12940000      -1.68250000       1.27620000
H        0.15730000      -0.65180000      -0.82680000
