17
Properties=species:S:1:pos:R:3 pbc="F F F"
O       -0.11770000       1.35770000      -0.28680000
C        0.00480000      -0.03320000      -0.06690000
C        0.07920000      -0.48370000       1.42680000
O       -1.17150000      -1.19340000       1.31910000
C       -1.36190000      -0.73230000      -0.01540000
C       -2.65700000      -0.20080000      -0.52500000
C       -2.08560000      -1.51040000      -1.05550000
C        0.99750000      -0.63040000      -0.94880000
C        1.83610000      -1.09140000      -1.67690000
H        0.74590000       1.69510000      -0.54750000
H        0.90680000      -1.14560000       1.69780000
H        0.01850000       0.36790000       2.11350000
H       -3.50660000      -0.26110000       0.14660000
H       -2.62550000       0.67990000      -1.15660000
H       -1.67000000      -1.53500000      -2.05770000
H       -2.56030000      -2.43100000      -0.73350000
H        2.57050000      -1.50970000      -2.32070000
