21
Properties=species:S:1:pos:R:3 pbc="F F F"
C        0.03610000       1.57330000       0.07040000
C        1.52440000       1.92450000      -0.03350000
O        2.21590000       1.72160000       1.22110000
C        2.69910000       0.42580000       0.78760000
C        1.98370000      -0.71350000       1.50440000
C        0.44480000      -0.63260000       1.34220000
C        0.00380000       0.02520000       0.00800000
C        1.05480000      -0.26410000      -1.08660000
C        2.19130000       0.66980000      -0.66240000
H       -0.41190000       1.98560000       0.97940000
H       -0.50100000       1.99070000      -0.79090000
H        1.72730000       2.91780000      -0.44450000
H        3.78610000       0.35450000       0.91070000
H        2.36290000      -1.65740000       1.09210000
H        2.25720000      -0.70920000       2.56500000
H        0.03070000      -1.64490000       1.40400000
H        0.01350000      -0.07110000       2.17690000
H       -0.99360000      -0.33400000      -0.26080000
H        1.35350000      -1.31660000      -1.13300000
H        0.68000000       0.01480000      -2.07820000
H        2.97240000       0.83280000      -1.40470000
