22
Properties=species:S:1:pos:R:3 pbc="F F F"
C        0.63670000       0.05320000      -1.49580000
C       -0.00560000       0.30840000      -0.13190000
O       -0.08340000       1.70490000       0.15870000
C       -1.38560000      -0.33830000      -0.01800000
C       -1.51180000      -1.86130000      -0.05000000
C       -0.94940000      -2.48990000       1.16150000
N       -2.30190000      -1.91260000       1.24740000
C       -2.14180000      -0.40710000       1.35160000
C       -1.52870000       0.13900000       2.62930000
H        1.60860000       0.55010000      -1.55760000
H        0.78100000      -1.01810000      -1.66960000
H        0.00160000       0.44070000      -2.30280000
H        0.65470000      -0.08710000       0.64720000
H       -0.63330000       2.11260000      -0.51990000
H       -2.03290000       0.11830000      -0.77710000
H       -1.81370000      -2.44480000      -0.91420000
H       -0.96070000      -3.57470000       1.20860000
H       -0.12260000      -2.03210000       1.69630000
H       -3.14530000       0.01250000       1.24020000
H       -0.53340000      -0.26510000       2.83460000
H       -1.42830000       1.22530000       2.55640000
H       -2.17020000      -0.10210000       3.48310000
