18
Properties=species:S:1:pos:R:3 pbc="F F F"
O       -0.31450000       1.55280000      -0.03480000
C       -0.08820000       0.16040000       0.03490000
C       -1.39650000      -0.61420000       0.01490000
O       -2.03890000      -0.28950000      -1.20560000
C       -3.35380000      -0.78980000      -1.31370000
C       -3.91480000      -0.37090000      -2.64390000
C       -5.35820000      -0.20010000      -2.84210000
O       -4.49780000       0.93080000      -2.71600000
H       -0.92710000       1.68280000      -0.76880000
H        0.54610000      -0.18940000      -0.79560000
H        0.44440000      -0.03790000       0.97090000
H       -1.21510000      -1.69950000       0.08760000
H       -2.02450000      -0.31110000       0.86760000
H       -3.35280000      -1.89130000      -1.24140000
H       -3.99210000      -0.39870000      -0.50580000
H       -3.29640000      -0.63350000      -3.50270000
H       -5.78750000      -0.36090000      -3.82970000
H       -6.04110000      -0.36330000      -2.00880000
