21
Properties=species:S:1:pos:R:3 pbc="F F F"
C       -0.04280000       1.44590000       0.05450000
O        0.00750000       0.04780000      -0.12170000
C       -1.24860000      -0.58740000      -0.04500000
C       -1.10280000      -2.05100000      -0.49080000
C       -2.34450000      -2.75770000       0.07300000
C       -2.26480000      -4.27200000       0.25030000
C       -2.62910000      -2.00370000       1.38190000
O       -3.34590000      -2.39190000       2.26800000
C       -1.84340000      -0.68860000       1.37420000
H        0.97200000       1.82560000      -0.08590000
H       -0.70580000       1.92430000      -0.68360000
H       -0.38730000       1.72810000       1.06030000
H       -1.96460000      -0.06840000      -0.70550000
H       -0.99470000      -2.14590000      -1.57360000
H       -0.19340000      -2.45600000      -0.02960000
H       -3.20550000      -2.52260000      -0.57410000
H       -1.38910000      -4.54860000       0.84700000
H       -3.15390000      -4.63620000       0.77130000
H       -2.19020000      -4.78100000      -0.71500000
H       -1.02330000      -0.78500000       2.09840000
H       -2.46890000       0.14780000       1.69380000
