15
Properties=species:S:1:pos:R:3 pbc="F F F"
N        0.09020000       1.28340000       0.12130000
C        0.09560000      -0.06110000       0.00680000
O        1.09940000      -0.74080000      -0.13590000
C       -1.27810000      -0.77290000       0.02050000
O       -1.06430000      -2.14680000      -0.00600000
C       -2.11140000      -0.39550000       1.27710000
O       -2.51130000       0.97280000       1.26180000
C       -3.28490000      -1.27320000       1.40260000
N       -4.25150000      -1.90020000       1.48470000
H        0.97780000       1.75620000       0.18770000
H       -0.75150000       1.75100000       0.42510000
H       -1.85010000      -0.43880000      -0.86200000
H       -0.09660000      -2.24160000      -0.08950000
H       -1.48740000      -0.52360000       2.16760000
H       -3.27820000       1.05770000       0.68270000
