14
Properties=species:S:1:pos:R:3 pbc="F F F"
N       -0.06200000      -1.15730000      -0.09070000
C       -0.04920000      -0.00310000      -0.04770000
C       -0.05390000       1.45730000       0.02580000
C       -1.00870000       1.98600000      -0.94750000
N       -1.77910000       2.40260000      -1.70060000
C        0.03680000       2.13830000       1.43440000
C        1.48090000       1.59940000       1.45510000
N        1.36120000       2.13080000       0.00560000
C        0.64490000       3.33160000       0.67120000
H       -0.73620000       2.11450000       2.20610000
H        2.21120000       2.15750000       2.04090000
H        1.64600000       0.52380000       1.52310000
H        0.01380000       3.90580000      -0.00750000
H        1.33540000       3.97240000       1.21950000
