17
Properties=species:S:1:pos:R:3 pbc="F F F"
C        0.02090000       1.49610000       0.00380000
C        0.01450000      -0.01540000      -0.00930000
C       -0.85460000      -0.76090000       0.95850000
C        0.65030000      -0.77670000       1.17880000
C        1.43050000      -1.99730000       0.87810000
O        2.18070000      -2.55560000       1.65030000
N        1.25800000      -2.46710000      -0.42530000
C        0.70650000      -1.70560000      -1.44810000
N        0.15170000      -0.56950000      -1.32290000
H        0.96560000       1.88280000      -0.39060000
H       -0.78860000       1.87840000      -0.62550000
H       -0.11320000       1.88320000       1.01800000
H       -1.43270000      -0.18290000       1.67040000
H       -1.32930000      -1.67430000       0.61770000
H        1.03660000      -0.21810000       2.02310000
H        1.80160000      -3.28600000      -0.65880000
H        0.79200000      -2.15950000      -2.43420000
