19
Properties=species:S:1:pos:R:3 pbc="F F F"
O        0.10550000       1.24590000      -0.36920000
C        0.10230000      -0.09020000       0.07500000
C       -0.01200000      -0.35740000       1.59250000
O       -1.21720000      -1.12340000       1.39580000
C       -1.27870000      -0.76120000       0.00560000
C       -2.55590000      -0.10410000      -0.57590000
C       -2.02630000      -0.55340000      -1.96930000
C       -1.78920000      -1.77910000      -1.03640000
C       -3.21310000      -1.51470000      -0.45410000
H        1.00910000       1.57560000      -0.34520000
H        0.89290000      -0.67890000      -0.40840000
H        0.77880000      -0.95250000       2.06250000
H       -0.18970000       0.55670000       2.17330000
H       -2.98470000       0.86030000      -0.30700000
H       -2.78790000      -0.69450000      -2.73970000
H       -1.15030000      -0.03040000      -2.35680000
H       -1.34130000      -2.73960000      -1.29550000
H       -3.40760000      -1.88190000       0.55390000
H       -4.04940000      -1.71080000      -1.13050000
