22
Properties=species:S:1:pos:R:3 pbc="F F F"
C        0.00110000       1.54600000       0.64310000
C        0.13850000       0.07630000       0.30130000
C        0.30000000      -0.43000000      -1.09900000
C        0.34280000       0.47910000      -2.31650000
C        0.96890000      -0.20470000      -3.51230000
C        1.72510000       0.53040000      -4.53280000
O        2.39730000      -0.26610000      -3.55480000
N        1.39060000      -0.54930000      -0.13110000
C        2.61020000       0.23380000      -0.27480000
H        0.48280000       2.21170000      -0.07500000
H       -1.05950000       1.81720000       0.68350000
H        0.42940000       1.75440000       1.62990000
H       -0.42530000      -0.55950000       0.98560000
H       -0.15920000      -1.39420000      -1.32860000
H       -0.68590000       0.76080000      -2.58230000
H        0.88600000       1.40600000      -2.11830000
H        0.48550000      -1.13560000      -3.81680000
H        1.77170000       0.15540000      -5.55430000
H        1.85750000       1.60700000      -4.42940000
H        2.47010000       1.29930000      -0.50750000
H        3.17300000       0.17110000       0.66250000
H        3.21320000      -0.20070000      -1.07560000
