19
Properties=species:S:1:pos:R:3 pbc="F F F"
C        0.48360000       1.36540000      -0.01120000
O        0.52290000      -0.04100000       0.04790000
C        0.09660000      -0.63400000      -1.16450000
C        0.14820000      -2.08550000      -1.06170000
C        0.17360000      -3.28700000      -1.00290000
C        0.23960000      -4.74240000      -0.92680000
C        1.45390000      -5.32040000      -1.63390000
C        1.43130000      -6.66790000      -2.21250000
O        1.34520000      -5.50680000      -3.04220000
H        1.14250000       1.76190000      -0.80050000
H       -0.53590000       1.74010000      -0.19730000
H        0.82630000       1.73940000       0.95610000
H       -0.93190000      -0.31270000      -1.40700000
H        0.73360000      -0.29620000      -2.00100000
H        0.26530000      -5.05090000       0.12740000
H       -0.66270000      -5.18700000      -1.36400000
H        2.41060000      -4.91060000      -1.30910000
H        2.35450000      -7.23930000      -2.29580000
H        0.52150000      -7.26440000      -2.14920000
