18
Properties=species:S:1:pos:R:3 pbc="F F F"
C        0.07110000       1.59280000      -0.09150000
C        1.31000000       0.73840000      -0.03140000
C        2.10960000       0.72790000       1.25810000
O        1.26580000       0.84540000       2.40210000
C        0.38380000      -0.23170000       2.54690000
C       -1.08370000       0.08760000       2.50450000
C       -0.42300000      -0.60080000       1.32800000
C       -0.05830000       0.09120000       0.03930000
H       -0.14620000       2.20950000       0.77280000
H       -0.20610000       2.03400000      -1.04240000
H        1.89860000       0.61030000      -0.93490000
H        2.71490000      -0.19100000       1.32130000
H        2.79080000       1.58350000       1.30970000
H        0.74420000      -1.01210000       3.21620000
H       -1.75370000      -0.49800000       3.12430000
H       -1.35200000       1.13280000       2.40310000
H       -0.65340000      -1.65480000       1.20720000
H       -0.40130000      -0.42480000      -0.85130000
