16
Properties=species:S:1:pos:R:3 pbc="F F F"
O        0.05120000       1.55360000       0.03400000
C        0.02750000       0.16490000       0.03860000
C       -1.33640000      -0.61260000      -0.12770000
C       -1.83120000       0.00860000      -1.43180000
O       -0.58750000       0.03000000      -2.19470000
C        0.33740000      -0.57620000      -1.28240000
C       -0.47370000      -1.78840000      -0.71710000
C        0.20810000      -2.62540000       0.24950000
N        0.75130000      -3.30470000       1.01190000
H       -0.09950000       1.83650000      -0.87740000
H        0.59890000      -0.19730000       0.89350000
H       -2.04390000      -0.76130000       0.68440000
H       -2.57820000      -0.58980000      -1.96160000
H       -2.20840000       1.02780000      -1.30110000
H        1.31940000      -0.66560000      -1.74140000
H       -0.95710000      -2.40330000      -1.47910000
