19
Properties=species:S:1:pos:R:3 pbc="F F F"
C       -0.00610000       1.45740000       0.05790000
C       -0.00190000      -0.02830000      -0.01200000
C       -0.01660000      -0.89300000      -1.03250000
C        0.01650000      -2.24600000      -0.30160000
O       -0.94630000      -2.01130000       0.78530000
C        0.03620000      -1.00230000       1.19180000
C        1.12940000      -1.99870000       0.74410000
C        1.89950000      -2.98000000       1.55420000
C        2.61420000      -1.95060000       0.68120000
H        0.88490000       1.83570000       0.57570000
H       -0.03090000       1.90520000      -0.93940000
H       -0.87340000       1.82750000       0.61930000
H       -0.03330000      -0.72120000      -2.09900000
H       -0.12160000      -3.18070000      -0.84410000
H       -0.07910000      -0.62840000       2.20970000
H        1.93860000      -2.84880000       2.63100000
H        1.91540000      -4.01720000       1.23450000
H        3.10660000      -2.30110000      -0.22050000
H        3.13040000      -1.13450000       1.17730000
