14
Properties=species:S:1:pos:R:3 pbc="F F F"
O        0.16740000       1.26090000       0.38570000
C        0.07190000      -0.08660000       0.02850000
C       -1.38950000      -0.59800000      -0.07180000
C       -1.35710000      -1.49470000      -1.30410000
C       -0.23670000      -1.35460000      -2.02180000
C        0.63490000      -0.35190000      -1.37910000
O        1.58500000       0.24610000      -1.82720000
C       -1.88490000      -1.28650000       1.11880000
N       -2.27730000      -1.84730000       2.04960000
H        0.92820000       1.61030000      -0.10200000
H        0.62010000      -0.73550000       0.73150000
H       -2.03550000       0.26990000      -0.25730000
H       -2.19100000      -2.14430000      -1.54230000
H       -0.00510000      -1.83570000      -2.96280000
