18
Properties=species:S:1:pos:R:3 pbc="F F F"
C        0.06570000       1.53330000      -0.14210000
C       -0.00580000       0.02500000       0.00910000
O        0.64200000      -0.55390000      -1.13310000
C        0.68830000      -1.90020000      -1.19110000
N        0.17990000      -2.61680000      -0.27400000
C        1.40430000      -2.32720000      -2.45670000
C        1.52600000      -3.83730000      -2.64620000
H        1.10450000       1.87310000      -0.18620000
H       -0.44000000       1.85910000      -1.05580000
H       -0.41920000       2.01690000       0.71120000
H        0.49510000      -0.32110000       0.91940000
H       -1.03900000      -0.33490000       0.05630000
H        0.30440000      -3.60550000      -0.47740000
H        0.87570000      -1.87300000      -3.30330000
H        2.39530000      -1.85770000      -2.44880000
H        2.08710000      -4.30010000      -1.82790000
H        0.54250000      -4.31560000      -2.69620000
H        2.05200000      -4.06360000      -3.57780000
