17
Properties=species:S:1:pos:R:3 pbc="F F F"
C        0.07180000       1.30720000      -0.24380000
O       -0.09430000      -0.00130000       0.26760000
C       -1.38250000      -0.53250000       0.18110000
C       -2.33710000       0.04550000       1.21570000
C       -1.91020000      -0.82940000      -1.27440000
O       -0.84550000      -1.85400000      -1.41150000
C       -1.31910000      -2.07780000      -0.02120000
C       -2.72020000      -2.00990000      -0.68030000
O       -3.72880000      -2.61990000      -0.81600000
H        1.12690000       1.55790000      -0.11720000
H       -0.17680000       1.35970000      -1.31240000
H       -0.53130000       2.05000000       0.29620000
H       -2.50620000       1.11250000       1.04380000
H       -3.31100000      -0.45150000       1.19220000
H       -1.90970000      -0.07300000       2.21540000
H       -2.09560000      -0.17290000      -2.12190000
H       -0.81170000      -2.83370000       0.57390000
