21
Properties=species:S:1:pos:R:3 pbc="F F F"
C       -1.26050000       0.88360000      -0.92450000
C       -0.29500000       0.05870000      -0.04740000
N       -0.79330000      -1.23680000       0.40150000
C       -1.44720000      -1.29460000       1.70670000
C       -2.79770000      -0.61150000       1.84920000
C       -4.04090000      -1.29290000       1.33070000
C       -3.81300000      -1.16600000       2.81620000
C        0.97670000      -0.13500000      -0.78100000
N        1.95830000      -0.27470000      -1.37440000
H       -0.80610000       1.83310000      -1.22200000
H       -1.51010000       0.33030000      -1.83510000
H       -2.18340000       1.08650000      -0.37790000
H       -0.04770000       0.64140000       0.84870000
H       -1.36370000      -1.66760000      -0.31720000
H       -1.56630000      -2.35650000       1.95650000
H       -0.74530000      -0.88650000       2.44510000
H       -2.77650000       0.47190000       1.76400000
H       -4.81490000      -0.68690000       0.87320000
H       -3.93200000      -2.27820000       0.88720000
H       -3.54810000      -2.06360000       3.36610000
H       -4.42760000      -0.47010000       3.37600000
