19
Properties=species:S:1:pos:R:3 pbc="F F F"
C       -0.08080000       1.50610000      -0.01920000
C       -0.01850000      -0.00710000       0.07540000
O        0.02550000      -0.57950000       1.13970000
C        0.00060000      -0.76940000      -1.25680000
C        0.59440000      -2.17600000      -1.09340000
O        0.38730000      -2.95610000      -2.25830000
C       -0.97920000      -3.23370000      -2.48360000
C       -1.85420000      -2.01960000      -2.33940000
C       -1.40760000      -0.88430000      -1.80960000
H        0.88260000       1.88110000      -0.38590000
H       -0.83970000       1.83460000      -0.73670000
H       -0.28070000       1.93430000       0.96370000
H        0.60870000      -0.18380000      -1.96240000
H        1.67580000      -2.13070000      -0.94200000
H        0.14690000      -2.65130000      -0.21050000
H       -1.04690000      -3.63360000      -3.50230000
H       -1.33360000      -4.03140000      -1.80420000
H       -2.87670000      -2.10580000      -2.69720000
H       -2.05460000      -0.01350000      -1.74670000
