18
Properties=species:S:1:pos:R:3 pbc="F F F"
C        0.05700000       1.52860000       0.01060000
C        0.02280000       0.03110000      -0.00210000
C        0.10470000      -0.80310000      -1.08510000
O        0.32700000      -0.67950000      -2.42520000
C        0.11780000      -1.99180000      -2.98090000
C        0.31410000      -2.99060000      -1.80930000
N        0.01410000      -2.10980000      -0.70170000
C       -0.08880000      -2.16610000       0.67520000
C       -0.10480000      -0.86540000       1.11970000
H        0.90370000       1.91410000       0.59140000
H        0.14900000       1.92310000      -1.00530000
H       -0.85290000       1.95610000       0.44910000
H       -0.90560000      -2.05480000      -3.37060000
H        0.82580000      -2.13510000      -3.79850000
H       -0.37360000      -3.83800000      -1.87580000
H        1.34140000      -3.37440000      -1.75600000
H       -0.18540000      -3.10290000       1.19790000
H       -0.22250000      -0.56030000       2.14970000
