14
Properties=species:S:1:pos:R:3 pbc="F F F"
O       -0.04730000       0.02210000       0.08170000
C       -0.04270000       1.21410000      -0.00030000
N       -1.04430000       2.17040000       0.01720000
C       -0.17060000       3.33740000       0.00400000
C        0.43520000       3.72890000       1.36390000
O        1.46600000       2.72020000       1.25230000
C        1.04380000       2.34950000      -0.08830000
C        2.07430000       2.31530000      -1.08100000
C        2.92430000       2.26480000      -1.92930000
H       -1.99170000       2.08150000       0.35900000
H       -0.40700000       4.10410000      -0.73110000
H        0.87290000       4.73370000       1.38010000
H       -0.20300000       3.58380000       2.24160000
H        3.68050000       2.21550000      -2.67400000
