18
Properties=species:S:1:pos:R:3 pbc="F F F"
O       -0.02490000       1.39640000      -0.04870000
C       -0.02120000      -0.00130000      -0.00770000
C       -0.41810000      -0.76640000      -1.24990000
C       -1.35480000      -0.66610000      -0.05900000
C       -1.54540000      -1.84250000       0.87050000
O       -0.38120000      -2.67190000       0.97880000
C        0.86030000      -2.11070000       1.08310000
N        1.89070000      -2.82820000       1.24750000
C        0.96370000      -0.60720000       0.97590000
H        0.78590000       1.68340000      -0.48440000
H       -0.68000000      -0.17070000      -2.11650000
H        0.05980000      -1.71520000      -1.46920000
H       -2.22260000      -0.02320000      -0.16430000
H       -1.83460000      -1.48910000       1.87060000
H       -2.33110000      -2.51460000       0.51370000
H        1.62170000      -3.81220000       1.31910000
H        2.00060000      -0.37230000       0.72150000
H        0.76560000      -0.16240000       1.96070000
