22
Properties=species:S:1:pos:R:3 pbc="F F F"
C        0.11740000       1.57060000      -0.21360000
C        0.12350000       0.06400000      -0.05700000
C        1.41240000      -0.71830000      -0.05300000
C        0.57680000      -0.63740000       1.20600000
C        1.04940000       0.12500000       2.43030000
N        1.77810000      -0.70090000       3.38080000
C        3.08670000      -1.21270000       3.01170000
C        1.26820000      -0.97940000       4.61450000
O        1.80470000      -1.65400000       5.46880000
H        0.99620000       2.03750000       0.24040000
H        0.11710000       1.84480000      -1.27410000
H       -0.77170000       2.01920000       0.24350000
H       -0.70980000      -0.42330000      -0.55700000
H        1.46430000      -1.66040000      -0.58750000
H        2.33630000      -0.14670000      -0.07410000
H        0.01980000      -1.53470000       1.46450000
H        1.68430000       0.96940000       2.13200000
H        0.18820000       0.54720000       2.96120000
H        3.75040000      -0.38990000       2.71820000
H        3.49930000      -1.72270000       3.88220000
H        3.01900000      -1.91580000       2.17550000
H        0.27660000      -0.50660000       4.76060000
