18
Properties=species:S:1:pos:R:3 pbc="F F F"
C        0.11040000      -1.22430000       0.10200000
C        0.04590000      -0.02800000       0.19600000
C        0.00130000       1.42540000       0.31810000
C        1.34600000       2.06950000       0.00630000
N        1.59800000       2.44910000      -1.38490000
C        1.50650000       3.50490000      -0.36300000
C        0.37210000       4.46860000      -0.48600000
C        0.19250000       5.56200000       0.47870000
O        0.73040000       5.81420000      -0.81890000
H        0.15460000      -2.28120000       0.01190000
H       -0.75840000       1.82840000      -0.35970000
H       -0.30370000       1.69790000       1.33720000
H        2.17180000       1.63360000       0.56600000
H        2.56230000       2.27510000      -1.65150000
H        2.42860000       3.98420000      -0.03680000
H       -0.50050000       4.09620000      -1.02060000
H       -0.80320000       5.96280000       0.66360000
H        0.89510000       5.67020000       1.30470000
