25
Properties=species:S:1:pos:R:3 pbc="F F F"
C        1.13570000       1.13380000      -0.07070000
C        0.83470000      -0.08780000       0.81000000
C        1.20340000       0.17950000       2.27150000
O        2.59250000       0.47160000       2.34180000
C       -0.62430000      -0.49470000       0.70160000
C       -1.13130000      -1.31030000      -0.46720000
C       -1.15620000      -1.89890000       0.92600000
C       -0.21660000      -3.04860000       1.24130000
C       -2.50670000      -2.01970000       1.60950000
H        2.18020000       1.43520000       0.03330000
H        0.93470000       0.91470000      -1.12370000
H        0.50700000       1.98520000       0.21810000
H        1.47030000      -0.91430000       0.46960000
H        0.60060000       1.02230000       2.65090000
H        0.95400000      -0.70270000       2.88090000
H        2.80940000       0.68850000       3.25280000
H       -1.30210000       0.29220000       1.03270000
H       -2.06950000      -1.02920000      -0.93500000
H       -0.39040000      -1.69610000      -1.16170000
H        0.74170000      -2.96190000       0.72350000
H       -0.01170000      -3.11370000       2.31670000
H       -0.66680000      -4.00140000       0.93760000
H       -3.01600000      -2.94550000       1.31520000
H       -2.39930000      -2.03540000       2.70100000
H       -3.16290000      -1.18270000       1.35120000
