17
Properties=species:S:1:pos:R:3 pbc="F F F"
C       -0.23940000       1.43570000       0.03490000
N        0.02980000       0.00240000       0.05200000
C        1.19360000      -0.48110000      -0.81090000
C        2.18040000      -0.04650000       0.32380000
C        0.94250000      -0.50150000       1.15850000
C        0.90970000      -2.00350000       0.80330000
C        1.07960000      -1.97850000      -0.52910000
C        0.72350000      -3.07790000       1.69500000
N        0.57610000      -3.94050000       2.45560000
H        0.63140000       2.10160000       0.14810000
H       -0.73170000       1.68290000      -0.91130000
H       -0.94430000       1.66270000       0.84130000
H        1.25750000      -0.13510000      -1.84140000
H        3.11640000      -0.59740000       0.43960000
H        2.36300000       1.02860000       0.35770000
H        0.74410000      -0.19930000       2.18540000
H        1.11000000      -2.79150000      -1.23850000
