15
Properties=species:S:1:pos:R:3 pbc="F F F"
C       -0.08100000       1.50610000       0.37180000
C        0.00430000       0.02010000       0.08880000
O        0.70780000      -0.59360000       1.19710000
C        0.86070000      -1.91960000       1.11990000
O        0.47280000      -2.62410000       0.22200000
C        1.57050000      -2.42740000       2.27760000
C        2.14650000      -2.92730000       3.21430000
C        2.86890000      -3.51420000       4.31880000
O        2.35130000      -3.87250000       5.34920000
H        0.91610000       1.94600000       0.45860000
H       -0.60860000       2.00500000      -0.44620000
H       -0.62530000       1.69620000       1.30060000
H       -0.98280000      -0.44400000       0.00450000
H        0.55220000      -0.19660000      -0.83310000
H        3.95850000      -3.61110000       4.14180000
