16
Properties=species:S:1:pos:R:3 pbc="F F F"
O        0.00200000      -0.10190000      -0.10300000
C       -0.01360000       1.11770000      -0.03130000
N       -1.21140000       1.79730000       0.05660000
C       -1.48990000       3.22360000      -0.10060000
C       -0.70710000       4.08920000       0.85790000
C        0.62220000       4.10730000       0.84020000
C        1.40250000       3.26290000      -0.13900000
N        1.16710000       1.82970000       0.02490000
H       -1.98330000       1.16410000      -0.07840000
H       -1.30490000       3.55650000      -1.13520000
H       -2.56090000       3.34970000       0.07340000
H       -1.26190000       4.68180000       1.57890000
H        1.17960000       4.71500000       1.54640000
H        1.18110000       3.59030000      -1.16830000
H        2.47390000       3.41820000       0.00650000
H        1.95200000       1.21760000      -0.13090000
