18
Properties=species:S:1:pos:R:3 pbc="F F F"
N       -0.09570000      -1.17660000      -0.10970000
C       -0.07050000      -0.02230000      -0.04320000
C        0.00010000       1.43210000       0.03790000
C       -0.26150000       2.09010000       1.40910000
C        0.80030000       1.71600000       2.40330000
C        1.11350000       2.76240000       1.36900000
C        1.41100000       2.09210000       0.04300000
C        2.70240000       1.50600000      -0.44000000
C        2.08250000       2.68980000      -1.15290000
H       -0.63050000       1.86490000      -0.74360000
H       -1.21930000       2.49880000       1.70260000
H        0.62820000       2.08790000       3.40800000
H        1.27800000       0.74080000       2.36030000
H        1.37370000       3.78220000       1.62480000
H        3.59080000       1.67380000       0.15990000
H        2.66680000       0.53920000      -0.93120000
H        1.63800000       2.52450000      -2.12930000
H        2.55170000       3.66170000      -1.03610000
