11
Properties=species:S:1:pos:R:3 pbc="F F F"
N       -0.15710000       1.30880000       0.00930000
C       -0.02810000       0.05410000       0.00130000
N       -1.04270000      -0.88700000       0.00210000
C       -0.46960000      -2.13360000      -0.00870000
N        0.82840000      -2.07730000      -0.01640000
O        1.12960000      -0.69470000      -0.01020000
C       -1.21230000      -3.33620000      -0.01110000
C       -1.87490000      -4.33850000      -0.01280000
H        0.74830000       1.77130000       0.00640000
H       -2.02240000      -0.66520000       0.00930000
H       -2.44810000      -5.23340000      -0.01450000
