17
Properties=species:S:1:pos:R:3 pbc="F F F"
N       -0.33830000       1.25570000      -0.48000000
C       -0.13910000      -0.10430000      -0.05370000
C       -1.13960000      -0.99860000       0.15730000
C       -2.58240000      -0.75130000      -0.02820000
N       -2.64820000       0.23200000      -1.20150000
H       -3.53300000       0.73640000      -1.26160000
H       -1.75470000       0.92470000      -1.03920000
H       -2.48380000      -0.26260000      -2.07740000
O       -0.63050000      -2.22600000       0.36830000
C        0.76190000      -2.09970000       0.27770000
C        1.15750000      -0.78130000      -0.02770000
O        2.24650000      -0.20680000      -0.28000000
H        0.50210000       1.48820000      -1.02210000
H       -0.32690000       1.90100000       0.31010000
H       -3.14920000      -1.65420000      -0.26800000
H       -3.08930000      -0.23340000       0.79840000
H        1.29950000      -3.01670000       0.44730000
