19
Properties=species:S:1:pos:R:3 pbc="F F F"
C       -0.04940000       1.52760000      -0.12630000
C        0.00740000       0.01600000      -0.04120000
C       -1.23480000      -0.69400000      -0.54360000
C        1.32910000      -0.66050000      -0.22190000
C        0.69950000      -0.62840000       1.17470000
C        1.28100000       0.16110000       2.20610000
C        1.76160000       0.81590000       3.10500000
C        2.34500000       1.62030000       4.13910000
O        2.38010000       1.32300000       5.31340000
H        0.85520000       1.98960000       0.27550000
H       -0.15980000       1.84390000      -1.16950000
H       -0.90420000       1.92050000       0.43500000
H       -1.40640000      -0.46400000      -1.60140000
H       -1.14630000      -1.78060000      -0.44890000
H       -2.12240000      -0.37710000       0.01470000
H        1.36540000      -1.62870000      -0.70970000
H        2.20800000      -0.04390000      -0.37130000
H        0.26150000      -1.56360000       1.51190000
H        2.78060000       2.57430000       3.77490000
