16
Properties=species:S:1:pos:R:3 pbc="F F F"
O        0.08640000       1.40540000      -0.14700000
C        0.06480000       0.00390000       0.06560000
C       -1.32910000      -0.54900000       0.08860000
C       -2.37480000      -0.32750000       1.18240000
O       -2.89280000      -1.68110000       1.00280000
C       -1.90420000      -1.93910000       0.02740000
C       -2.05470000      -1.02950000      -1.17930000
C       -3.32520000      -0.50550000      -1.59640000
N       -4.34180000      -0.06400000      -1.92760000
H       -0.32500000       1.58490000      -0.99950000
H        0.66710000      -0.53590000      -0.68250000
H        0.54210000      -0.15210000       1.03930000
H       -1.93030000      -0.21980000       2.17650000
H       -3.13950000       0.43630000       1.01760000
H       -1.46920000      -2.93060000      -0.02930000
H       -1.37370000      -1.26880000      -1.99210000
