21
Properties=species:S:1:pos:R:3 pbc="F F F"
C       -0.14220000       1.54620000       0.07320000
C        0.10680000       0.06110000      -0.02010000
C       -0.68380000      -0.88550000       0.84190000
C        0.81230000      -0.72630000       1.09620000
C        1.72210000      -1.76730000       0.43870000
C        1.20840000      -1.88880000      -1.01200000
C        0.61190000      -0.50400000      -1.34440000
C        1.25120000      -0.10490000       2.30860000
C        1.64060000       0.41080000       3.32460000
H        0.73430000       2.11360000      -0.26010000
H       -0.98950000       1.84140000      -0.55650000
H       -0.36270000       1.84800000       1.10080000
H       -1.34050000      -0.44290000       1.58240000
H       -1.04100000      -1.82710000       0.43710000
H        2.75090000      -1.39130000       0.45760000
H        1.71700000      -2.72490000       0.96920000
H        2.00010000      -2.17900000      -1.70740000
H        0.43640000      -2.66170000      -1.07870000
H       -0.17510000      -0.56030000      -2.10530000
H        1.38880000       0.16470000      -1.73640000
H        1.97830000       0.86260000       4.22370000
