21
Properties=species:S:1:pos:R:3 pbc="F F F"
C        1.31000000       1.72890000      -0.01210000
C        1.47060000       0.21910000      -0.16670000
C        0.69900000      -0.36070000      -1.34800000
O       -0.03980000       0.32320000      -2.02410000
C        0.91190000      -1.83810000      -1.59950000
C        0.21880000      -2.56220000      -2.79030000
C        1.20790000      -1.83920000      -3.75620000
C        2.07000000      -2.32050000      -2.55440000
C        1.30400000      -3.67080000      -2.64180000
H        1.67560000       2.25350000      -0.89880000
H        0.25750000       1.99640000       0.10960000
H        1.86500000       2.09150000       0.85760000
H        2.52640000      -0.06460000      -0.27910000
H        1.13400000      -0.30800000       0.73750000
H        0.89510000      -2.37990000      -0.64570000
H       -0.85410000      -2.69710000      -2.92490000
H        1.40080000      -2.34390000      -4.70670000
H        1.07090000      -0.76770000      -3.88910000
H        3.14000000      -2.17440000      -2.39660000
H        1.27140000      -4.28190000      -1.73530000
H        1.49930000      -4.27760000      -3.52970000
