16
Properties=species:S:1:pos:R:3 pbc="F F F"
O       -0.01370000       1.38180000       0.11380000
C        0.00000000      -0.01080000       0.02220000
C       -1.40250000      -0.61040000      -0.21560000
C       -1.15550000      -2.05180000      -0.69740000
C       -0.61500000      -1.23540000      -1.88940000
O       -1.62270000      -0.21750000      -1.61240000
C        0.67440000      -0.59180000      -1.30160000
C        1.24950000       0.43040000      -2.16050000
N        1.69640000       1.23520000      -2.85930000
H       -0.49440000       1.71550000      -0.65600000
H        0.49210000      -0.38390000       0.92270000
H       -2.19670000      -0.31150000       0.46680000
H       -0.47490000      -2.69750000      -0.13710000
H       -2.08480000      -2.56490000      -0.94350000
H       -0.59610000      -1.58160000      -2.92110000
H        1.43870000      -1.34120000      -1.07830000
