23
Properties=species:S:1:pos:R:3 pbc="F F F"
C       -0.18710000       1.56850000       0.03070000
C       -0.10100000       0.03890000       0.01330000
C        0.74650000      -0.51200000      -1.14190000
C        2.23860000      -0.25300000      -1.07070000
C        2.96020000      -1.27990000      -1.53210000
C        4.44770000      -1.36460000      -1.66600000
C        2.04510000      -2.40270000      -1.98560000
C        0.70530000      -2.06270000      -1.29460000
O        0.59140000      -2.72850000      -0.04260000
H        0.79890000       2.03050000       0.14930000
H       -0.62020000       1.95280000      -0.89980000
H       -0.81390000       1.91760000       0.85730000
H        0.29910000      -0.32050000       0.96750000
H       -1.11090000      -0.38200000      -0.06290000
H        0.35620000      -0.07340000      -2.07590000
H        2.66110000       0.68350000      -0.72110000
H        4.94030000      -0.46170000      -1.29470000
H        4.84910000      -2.22550000      -1.11600000
H        4.74240000      -1.50550000      -2.71410000
H        1.94680000      -2.40120000      -3.08110000
H        2.38930000      -3.40320000      -1.69940000
H       -0.16520000      -2.39480000      -1.86660000
H        1.36120000      -2.47900000       0.48210000
