14
Properties=species:S:1:pos:R:3 pbc="F F F"
O       -0.17370000      -0.03780000       0.17440000
C       -0.06220000       1.15830000       0.10680000
N       -1.09080000       2.07360000      -0.12790000
C       -0.68630000       3.41890000       0.12150000
C        0.64400000       3.43650000       0.22910000
N        1.67180000       4.19070000       0.80360000
C        2.53590000       3.21940000       1.34350000
N        2.33430000       1.99830000       1.01190000
C        1.20660000       2.05340000       0.07250000
H       -2.05290000       1.77550000      -0.09300000
H       -1.42890000       4.18780000       0.26920000
H        1.49130000       5.04440000       1.30970000
H        3.34820000       3.54450000       1.98520000
H        1.60190000       1.87670000      -0.94310000
