22
Properties=species:S:1:pos:R:3 pbc="F F F"
C       -0.21160000       1.71440000       0.09460000
C        0.01580000       0.20720000       0.02200000
C        1.13760000      -0.41750000      -0.86590000
C        2.11300000       0.41100000      -1.68390000
O        3.13710000      -0.41620000      -2.21020000
N        1.75810000      -1.14080000       0.31280000
C        2.10340000      -0.10430000       1.31680000
C        0.69020000      -0.50900000       1.20290000
C       -0.04190000      -1.28140000       2.26030000
H        0.69850000       2.26480000       0.34880000
H       -0.57850000       2.10230000      -0.86180000
H       -0.96390000       1.95260000       0.85480000
H       -0.93690000      -0.27870000      -0.21100000
H        0.73230000      -1.18980000      -1.52580000
H        1.59590000       0.86100000      -2.53920000
H        2.53750000       1.23880000      -1.09520000
H        3.42140000      -0.99280000      -1.49060000
H        2.67170000      -0.51480000       2.14620000
H        2.43880000       0.87800000       0.99640000
H       -0.54140000      -0.60250000       2.96180000
H       -0.80630000      -1.93030000       1.81910000
H        0.64810000      -1.90920000       2.83130000
