24
Properties=species:S:1:pos:R:3 pbc="F F F"
C        0.23610000       1.52430000      -0.03820000
C        0.09430000       0.00070000       0.07160000
C        0.64750000      -0.50920000       1.40830000
C       -1.37030000      -0.41010000      -0.14320000
N       -1.50860000      -1.86410000      -0.23400000
C       -2.01910000      -2.60560000       0.91730000
C       -2.84020000      -2.46190000      -0.31500000
C       -4.12810000      -1.66270000      -0.32480000
O       -4.26100000      -0.88970000       0.85920000
H        1.28090000       1.83120000       0.07550000
H       -0.11780000       1.89280000      -1.00730000
H       -0.34330000       2.03260000       0.74240000
H        0.67660000      -0.46270000      -0.73570000
H        0.59960000      -1.59940000       1.46950000
H        1.69340000      -0.21090000       1.53810000
H        0.07860000      -0.09670000       2.25090000
H       -2.00410000       0.02650000       0.64330000
H       -1.71180000       0.01050000      -1.09860000
H       -1.51870000      -3.54450000       1.14210000
H       -2.34740000      -2.03620000       1.78320000
H       -2.88650000      -3.30170000      -1.00870000
H       -4.15120000      -1.01900000      -1.21930000
H       -4.96220000      -2.37660000      -0.42170000
H       -4.99220000      -0.27730000       0.73660000
