17
Properties=species:S:1:pos:R:3 pbc="F F F"
O        0.01590000       1.40060000      -0.04850000
C       -0.01470000       0.00100000       0.02470000
C       -1.42830000      -0.50980000       0.06980000
N       -2.43280000       0.29790000       0.05030000
C       -3.62020000      -0.52210000       0.00530000
C       -3.76200000      -1.41430000      -1.21100000
O       -2.95180000      -1.23810000      -2.32680000
C       -3.15640000      -1.98900000       0.05320000
N       -1.73170000      -1.84470000       0.20060000
H       -0.91060000       1.68290000       0.00660000
H        0.49970000      -0.43950000      -0.84490000
H        0.51760000      -0.36030000       0.91960000
H       -4.50300000      -0.14090000       0.50440000
H       -4.77670000      -1.74160000      -1.42950000
H       -2.80600000      -0.29120000      -2.44020000
H       -3.63260000      -2.78920000       0.60740000
H       -1.10720000      -2.55170000      -0.15660000
