18
Properties=species:S:1:pos:R:3 pbc="F F F"
C        0.03230000       1.49400000       0.12730000
C       -0.01480000       0.00280000      -0.01040000
C       -1.00280000      -0.89240000       0.77080000
C       -1.06660000      -2.21100000       0.02330000
N        0.41690000      -2.07730000      -0.27560000
C        0.48270000      -1.07760000       0.90370000
C        0.44590000      -0.84980000      -1.19420000
C       -0.31320000      -0.89430000      -2.43100000
C       -0.93780000      -0.90580000      -3.45920000
H        1.02120000       1.88570000      -0.13630000
H       -0.70410000       1.97230000      -0.52790000
H       -0.18500000       1.80400000       1.15470000
H       -1.69290000      -0.45850000       1.48420000
H       -1.20940000      -3.06570000       0.68950000
H       -1.70300000      -2.31230000      -0.86040000
H        1.18410000      -1.11890000       1.72480000
H        1.50010000      -0.64890000      -1.41510000
H       -1.48780000      -0.92240000      -4.36760000
