17
Properties=species:S:1:pos:R:3 pbc="F F F"
C       -0.13940000       1.46950000      -0.15570000
O       -0.40920000       0.08640000      -0.31730000
C        0.64160000      -0.61160000      -0.96610000
C        1.80540000      -0.82050000       0.02700000
O        2.94670000      -0.52280000      -0.19260000
C        0.17060000      -1.92050000      -1.39520000
C       -0.14970000      -3.03690000      -1.71650000
C       -0.60450000      -4.35950000      -2.14580000
O       -1.07460000      -4.39190000      -3.48370000
H        0.75160000       1.65390000       0.46090000
H        0.00350000       1.96510000      -1.12690000
H       -1.00970000       1.90090000       0.34230000
H        1.03270000      -0.04060000      -1.82220000
H        1.46850000      -1.26060000       0.99080000
H        0.22850000      -5.06980000      -2.10320000
H       -1.36690000      -4.72220000      -1.43810000
H       -1.75550000      -3.71630000      -3.56930000
