23
Properties=species:S:1:pos:R:3 pbc="F F F"
C        0.01780000       1.58540000       0.00640000
C        0.05740000       0.05250000       0.00870000
C        0.72230000      -0.58090000      -1.22300000
C        2.18280000      -0.34980000      -1.52720000
C        1.76230000      -1.57830000      -0.75670000
C        1.78020000      -1.55610000       0.76060000
C        2.19880000      -0.29620000       1.48620000
C        0.73240000      -0.57400000       1.24970000
C       -0.15330000      -0.85260000       2.44300000
H        1.02570000       2.01090000      -0.01870000
H       -0.52390000       1.96320000      -0.86700000
H       -0.48380000       1.96930000       0.90130000
H       -0.98170000      -0.30390000       0.01570000
H        0.07580000      -0.80160000      -2.06640000
H        2.48830000      -0.49700000      -2.55830000
H        2.73200000       0.44030000      -1.02890000
H        1.87280000      -2.54520000      -1.23450000
H        1.93160000      -2.50470000       1.26520000
H        2.55320000      -0.41260000       2.50620000
H        2.70760000       0.49450000       0.94810000
H       -0.56240000       0.07430000       2.86420000
H       -1.00050000      -1.49400000       2.17180000
H        0.40340000      -1.35410000       3.24130000
