18
Properties=species:S:1:pos:R:3 pbc="F F F"
C       -0.49990000       1.36030000       0.13070000
C        0.03480000      -0.06310000       0.03610000
C        1.29040000      -0.23020000      -0.88980000
C        2.10340000      -0.57260000       0.33780000
N        3.32650000      -0.72520000       0.62800000
O        4.13910000      -0.57690000      -0.50910000
C        0.89430000      -0.59050000       1.25010000
C        0.98260000       0.18420000       2.54900000
O        0.05930000       0.76240000       3.06210000
H        0.30100000       2.07500000       0.35010000
H       -0.95290000       1.65150000      -0.82300000
H       -1.24810000       1.45390000       0.92030000
H       -0.77720000      -0.74810000      -0.21750000
H        1.22660000      -1.05000000      -1.61190000
H        1.61320000       0.66950000      -1.42250000
H        5.02250000      -0.70670000      -0.14720000
H        0.61720000      -1.61660000       1.53180000
H        1.99040000       0.16330000       3.01870000
