16
Properties=species:S:1:pos:R:3 pbc="F F F"
C        0.06320000       1.52260000      -0.03010000
C        0.27290000       0.01290000      -0.04290000
N        0.06560000      -0.53920000      -1.38750000
H       -0.85240000      -0.27730000      -1.72810000
H        1.76800000      -0.53860000      -2.28200000
C        0.25960000      -1.98510000      -1.47990000
C        1.72200000      -2.32930000      -1.81090000
O        2.40760000      -1.28470000      -2.29930000
O        2.19180000      -3.42510000      -1.67350000
H        0.74650000       2.01850000      -0.72550000
H       -0.96170000       1.78220000      -0.31950000
H        0.23610000       1.92540000       0.97160000
H        1.30080000      -0.22450000       0.25660000
H       -0.38840000      -0.46910000       0.69660000
H       -0.02350000      -2.53580000      -0.57310000
H       -0.34800000      -2.38110000      -2.30060000
