19
Properties=species:S:1:pos:R:3 pbc="F F F"
C       -0.39600000       1.67480000       0.07520000
C       -0.08600000       0.18630000       0.10960000
C        1.08940000      -0.32900000      -0.81230000
C        1.84430000      -0.84280000       0.42600000
O        2.72320000       0.14890000       0.99640000
C        1.73820000       0.51570000       1.99260000
C        0.68410000      -0.40040000       1.35730000
C       -1.32810000      -0.64270000      -0.13250000
O       -2.43030000      -0.20410000      -0.33750000
H        0.51510000       2.27210000       0.16140000
H       -0.88590000       1.93490000      -0.86720000
H       -1.07870000       1.95620000       0.88290000
H        0.78860000      -1.11810000      -1.50900000
H        1.61410000       0.45330000      -1.36400000
H        2.29710000      -1.83740000       0.39830000
H        2.04830000       0.19210000       2.99470000
H        1.54000000       1.59220000       2.01290000
H        0.12430000      -1.06330000       2.01730000
H       -1.14950000      -1.74480000      -0.11030000
