19
Properties=species:S:1:pos:R:3 pbc="F F F"
O        0.48110000       0.50330000       0.81510000
C       -0.09070000       0.23590000      -0.44680000
C       -1.41890000      -0.48890000      -0.33200000
C       -2.00910000      -1.44520000      -1.32850000
C       -0.94990000      -2.36020000      -1.96630000
C       -0.59400000      -2.89010000      -0.52350000
C        0.83870000      -2.89010000      -0.07080000
O        1.29380000      -2.24710000       0.84660000
C       -1.61750000      -1.92700000       0.07970000
H        0.71990000      -0.35760000       1.18760000
H       -0.25620000       1.20770000      -0.92630000
H        0.60670000      -0.31550000      -1.09520000
H       -2.18230000       0.13740000       0.12630000
H       -3.00190000      -1.30600000      -1.73870000
H       -1.38110000      -3.14310000      -2.59180000
H       -0.14880000      -1.87070000      -2.52670000
H       -0.93180000      -3.93180000      -0.45070000
H        1.50090000      -3.57180000      -0.65220000
H       -2.26350000      -2.18280000       0.91030000
