16
Properties=species:S:1:pos:R:3 pbc="F F F"
O        0.35020000       0.11640000       0.21010000
C        0.13350000       1.25830000      -0.03380000
O       -1.03170000       1.80930000      -0.51060000
C       -0.47410000       3.16200000      -0.47090000
C        0.87590000       2.60550000       0.03130000
C        1.39480000       3.03850000       1.37520000
C        2.80940000       2.70780000       1.77820000
C        2.43060000       4.13440000       1.47560000
H       -0.48400000       3.61450000      -1.46430000
H       -1.02150000       3.78400000       0.24090000
H        1.66800000       2.65430000      -0.72250000
H        0.65320000       3.00660000       2.16930000
H        2.99110000       2.42700000       2.80900000
H        3.42850000       2.18060000       1.06070000
H        2.79630000       4.57360000       0.55320000
H        2.35250000       4.83500000       2.29910000
