13
Properties=species:S:1:pos:R:3 pbc="F F F"
C        0.01370000       1.42870000       0.00950000
C       -0.01080000      -0.02420000       0.00190000
C       -0.04230000      -1.22930000      -0.00420000
C       -0.02030000      -2.65380000      -0.01200000
N       -1.15960000      -3.27330000      -0.00440000
O       -0.99980000      -4.64520000      -0.01330000
C        1.24950000      -3.30860000      -0.02770000
C        2.33010000      -3.83690000      -0.04090000
H        1.04210000       1.80530000       0.00170000
H       -0.49970000       1.83690000      -0.86820000
H       -0.48290000       1.82750000       0.90090000
H       -1.91130000      -4.95940000      -0.00630000
H        3.28210000      -4.30790000      -0.05260000
