20
Properties=species:S:1:pos:R:3 pbc="F F F"
C       -1.15590000       1.31280000      -1.50190000
C       -0.56750000       0.46720000      -0.37440000
O       -1.45670000      -0.61980000      -0.12380000
C       -1.37560000      -1.13540000       1.17630000
C       -2.16150000      -0.46670000       2.27300000
C       -2.60970000      -1.79620000       1.69630000
C        0.84660000      -0.00120000      -0.76480000
N        0.92310000      -1.30700000      -1.13580000
O        1.78990000       0.76580000      -0.75790000
H       -0.46830000       2.12460000      -1.74850000
H       -1.31320000       0.69970000      -2.39460000
H       -2.11790000       1.73230000      -1.19700000
H       -0.45620000       1.07900000       0.52900000
H       -0.40840000      -1.56760000       1.43010000
H       -1.74240000      -0.44150000       3.27260000
H       -2.74240000       0.40660000       1.99850000
H       -3.47420000      -1.78140000       1.04270000
H       -2.50460000      -2.69330000       2.29570000
H        0.08310000      -1.85680000      -1.20260000
H        1.79270000      -1.65810000      -1.50070000
