18
Properties=species:S:1:pos:R:3 pbc="F F F"
O        0.08050000       0.05770000       0.26780000
C        0.04350000       1.23720000      -0.03050000
C       -1.27870000       2.01100000      -0.09000000
O       -1.16940000       3.41970000      -0.24420000
C       -0.07980000       3.96740000       0.48150000
C        1.19720000       3.46210000      -0.16830000
C        2.52600000       3.31270000       0.62450000
C        2.47930000       1.78900000       0.29600000
N        1.14570000       1.99000000      -0.29760000
H       -1.87150000       1.64350000      -0.93250000
H       -1.81990000       1.75560000       0.83340000
H       -0.17250000       5.05520000       0.42180000
H       -0.11920000       3.66920000       1.54280000
H        1.32390000       3.94400000      -1.14480000
H        3.37940000       3.86710000       0.23350000
H        2.41740000       3.52510000       1.69070000
H        3.22460000       1.45070000      -0.43000000
H        2.46570000       1.09680000       1.14140000
