16
Properties=species:S:1:pos:R:3 pbc="F F F"
C       -0.01250000       1.52230000       0.17120000
N       -0.05280000       0.07470000      -0.02330000
C        0.68160000      -0.44960000      -1.17360000
C       -0.05240000      -0.11280000      -2.50030000
C       -1.41060000      -0.64850000      -2.53720000
N       -2.47920000      -1.08400000      -2.59110000
C        2.08460000      -0.01150000      -1.26520000
C        3.22410000       0.37000000      -1.31370000
H        1.00350000       1.94420000       0.20760000
H       -0.56400000       2.02750000      -0.62820000
H       -0.52240000       1.75700000       1.10880000
H        0.28110000      -0.38960000       0.81300000
H        0.67070000      -1.54110000      -1.07200000
H       -0.08670000       0.97130000      -2.64400000
H        0.51770000      -0.52340000      -3.33920000
H        4.23560000       0.69250000      -1.35480000
