13
Properties=species:S:1:pos:R:3 pbc="F F F"
O       -0.11990000       1.33670000       0.00850000
N        0.01910000      -0.05290000       0.00400000
C       -1.11400000      -0.64830000       0.01130000
C       -1.23610000      -2.15280000       0.00860000
C       -2.75700000      -2.38400000       0.01970000
O       -3.31600000      -3.45450000       0.02120000
C       -3.39580000      -1.04300000       0.02790000
C       -2.46120000      -0.07370000       0.02310000
H        0.79590000       1.63530000       0.00220000
H       -0.78790000      -2.61310000      -0.87700000
H       -0.77440000      -2.61740000       0.88490000
H       -4.47040000      -0.91330000       0.03650000
H       -2.63370000       0.99340000       0.02710000
