16
Properties=species:S:1:pos:R:3 pbc="F F F"
N       -0.02870000      -1.15420000      -0.13050000
C       -0.01930000      -0.00020000      -0.06630000
C       -0.00840000       1.45960000       0.00060000
C       -0.64990000       2.02780000       1.30320000
C        0.01150000       3.41140000       1.50020000
C        1.38930000       3.25580000       0.88200000
N        2.06240000       2.00430000       1.29010000
C        1.38980000       2.07740000      -0.01760000
H       -0.55140000       1.83500000      -0.87610000
H       -1.73770000       2.07720000       1.22970000
H       -0.39550000       1.37100000       2.13530000
H       -0.53630000       4.19330000       0.96100000
H        0.04650000       3.69730000       2.55550000
H        1.99200000       4.13130000       0.66350000
H        3.06610000       2.09150000       1.15670000
H        1.97630000       2.03120000      -0.92850000
