21
Properties=species:S:1:pos:R:3 pbc="F F F"
C        0.10910000       1.54730000       0.04780000
C       -0.04100000       0.03820000       0.10220000
C       -1.31290000      -0.48230000      -0.52980000
O       -1.29270000      -0.16370000      -1.91610000
C        1.18960000      -0.83020000      -0.03150000
C        0.47550000      -0.74540000       1.29430000
C        1.11530000      -0.07980000       2.47350000
C        2.42860000      -0.50250000       2.98360000
O        2.28290000       0.71360000       2.24760000
H        1.06300000       1.87290000       0.46550000
H        0.04550000       1.88650000      -0.98980000
H       -0.69370000       2.04200000       0.60890000
H       -1.38540000      -1.57170000      -0.37840000
H       -2.18440000      -0.02180000      -0.03560000
H       -2.16240000      -0.35250000      -2.27990000
H        1.11740000      -1.74950000      -0.60250000
H        2.14500000      -0.32190000      -0.09940000
H       -0.12110000      -1.60870000       1.58440000
H        0.42380000       0.36470000       3.19220000
H        2.66890000      -0.38160000       4.03870000
H        2.96580000      -1.29550000       2.46590000
