19
Properties=species:S:1:pos:R:3 pbc="F F F"
C       -0.15460000       1.49270000      -0.16810000
C       -0.08480000      -0.02610000      -0.05710000
O        0.85840000      -0.46510000       0.92040000
C       -1.43520000      -0.65200000       0.26170000
O       -2.43060000      -0.41910000      -0.78840000
C       -2.53510000      -1.77190000      -1.06140000
N       -3.18050000      -2.37330000      -1.95030000
C       -1.58810000      -2.19640000       0.05030000
N       -0.49240000      -3.05470000      -0.33090000
H        0.82870000       1.90360000      -0.41210000
H       -0.86580000       1.78590000      -0.94520000
H       -0.49060000       1.93700000       0.77760000
H        0.27660000      -0.44250000      -1.00420000
H        0.68360000       0.01610000       1.73710000
H       -1.81410000      -0.27930000       1.22160000
H       -3.69960000      -1.71960000      -2.53960000
H       -2.12660000      -2.65170000       0.88820000
H       -0.11930000      -2.79190000      -1.23680000
H        0.26220000      -2.97240000       0.34360000
