19
Properties=species:S:1:pos:R:3 pbc="F F F"
C       -0.11010000       1.58700000       0.02840000
C        0.04010000       0.06070000       0.03380000
O        0.68810000      -0.42110000      -1.14300000
C        2.04560000      -0.04560000      -1.26970000
C        2.83270000      -0.21180000      -0.00180000
C        2.23860000      -0.42500000       1.17110000
C        0.76140000      -0.45430000       1.27260000
C        0.09160000      -0.40890000       2.58220000
O        0.20980000      -1.64390000       1.88560000
H        0.85200000       2.09120000       0.16010000
H       -0.54700000       1.91120000      -0.92010000
H       -0.76860000       1.91040000       0.83960000
H       -0.94980000      -0.40480000       0.00830000
H        2.45840000      -0.69160000      -2.05360000
H        2.14390000       0.99130000      -1.63950000
H        3.91480000      -0.15600000      -0.08470000
H        2.80970000      -0.59070000       2.07980000
H        0.68820000      -0.31590000       3.49000000
H       -0.91860000      -0.00470000       2.65570000
