15
Properties=species:S:1:pos:R:3 pbc="F F F"
O        0.11420000       1.48020000      -0.11060000
C       -0.00570000       0.09680000       0.03120000
C        0.53610000      -0.38040000       1.40990000
O       -0.24930000      -1.51020000       1.79430000
C       -1.42940000      -1.55220000       1.10630000
O       -2.25760000      -2.38590000       1.31290000
C       -1.46060000      -0.41130000       0.09770000
C        0.74860000      -0.59950000      -1.09080000
O        1.32560000       0.02580000      -1.94540000
H        0.63710000       1.62210000      -0.91680000
H        1.58630000      -0.68320000       1.39620000
H        0.40840000       0.43670000       2.12720000
H       -2.09060000       0.39690000       0.48240000
H       -1.88820000      -0.74820000      -0.84830000
H        0.74180000      -1.70790000      -1.07720000
