16
Properties=species:S:1:pos:R:3 pbc="F F F"
C        0.42980000       1.10460000      -0.12150000
O        0.10340000      -0.27080000       0.10760000
C        0.60590000      -0.78250000       1.25170000
O        1.30310000      -0.18480000       2.02940000
N        0.12480000      -2.07580000       1.44230000
C        0.14340000      -3.11500000       0.44170000
C        0.98940000      -3.22570000       1.69040000
C        2.41820000      -3.11300000       1.58990000
C        3.61550000      -3.04040000       1.51870000
H        1.51220000       1.23980000      -0.18830000
H       -0.04700000       1.36710000      -1.06610000
H        0.04650000       1.73180000       0.68730000
H       -0.76250000      -3.70860000       0.35620000
H        0.66640000      -2.91650000      -0.48890000
H        0.63320000      -3.87000000       2.49060000
H        4.67310000      -2.96250000       1.46130000
