19
Properties=species:S:1:pos:R:3 pbc="F F F"
O        0.07940000       1.38710000      -0.16070000
C        0.09660000      -0.02210000       0.00940000
C        0.82330000      -0.44290000       1.30500000
C       -0.06210000      -0.23520000       2.55090000
C       -1.49230000      -0.68340000       2.24120000
O       -1.51670000      -2.03890000       1.80680000
C       -1.50010000      -2.02550000       0.37710000
C       -1.35210000      -0.53840000       0.02890000
O       -2.00160000       0.07810000       1.15490000
H       -0.61290000       1.71890000       0.42470000
H        0.62720000      -0.42490000      -0.86090000
H        1.09760000      -1.50100000       1.23400000
H        1.75300000       0.12690000       1.38450000
H        0.32890000      -0.79830000       3.40390000
H       -0.09310000       0.82060000       2.84450000
H       -2.17410000      -0.56960000       3.08890000
H       -0.67200000      -2.63860000       0.00450000
H       -2.44350000      -2.43350000      -0.00400000
H       -1.88590000      -0.23670000      -0.87410000
