24
Properties=species:S:1:pos:R:3 pbc="F F F"
C        0.01100000       1.58930000      -0.11100000
C        0.01820000       0.06010000      -0.05270000
C       -1.39310000      -0.52830000       0.01440000
C       -1.37770000      -2.05750000       0.07880000
O       -0.32400000      -2.67580000       0.12760000
N       -2.58260000      -2.71390000       0.07170000
C       -3.88740000      -2.08230000       0.07810000
C       -2.56670000      -4.17650000       0.11200000
C       -2.56270000      -4.74040000       1.53550000
H        1.02970000       1.98630000      -0.15950000
H       -0.52920000       1.95510000      -0.99200000
H       -0.47130000       2.02260000       0.77290000
H        0.53380000      -0.35090000      -0.92640000
H        0.58910000      -0.28610000       0.81420000
H       -1.91920000      -0.13320000       0.89420000
H       -1.97810000      -0.20120000      -0.85510000
H       -3.80060000      -1.00000000       0.14380000
H       -4.44930000      -2.32590000      -0.83390000
H       -4.48150000      -2.42190000       0.93610000
H       -3.44340000      -4.53340000      -0.44090000
H       -1.67110000      -4.50850000      -0.41570000
H       -2.57940000      -5.83480000       1.51110000
H       -1.65830000      -4.42230000       2.05980000
H       -3.43430000      -4.40530000       2.10790000
