20
Properties=species:S:1:pos:R:3 pbc="F F F"
C        0.05130000       1.48390000       0.02670000
C        0.02830000      -0.02610000      -0.00370000
C       -1.27020000      -0.84800000      -0.19570000
N       -0.42470000      -1.95850000      -0.74100000
C        0.59430000      -2.21130000       0.33760000
C        1.77890000      -1.68380000      -0.52100000
C        2.27270000      -0.83070000       0.66030000
C        0.78220000      -0.81820000       1.08420000
C        0.60400000      -0.91490000      -1.17980000
H        1.07400000       1.87430000       0.05980000
H       -0.43550000       1.90590000      -0.85950000
H       -0.47670000       1.86620000       0.90840000
H       -1.87310000      -1.09810000       0.68510000
H       -1.91830000      -0.45740000      -0.98700000
H        0.56030000      -3.14700000       0.89320000
H        2.42180000      -2.30590000      -1.14090000
H        2.89150000      -1.41650000       1.34630000
H        2.76400000       0.12640000       0.45670000
H        0.48030000      -0.65620000       2.11930000
H        0.58010000      -0.55980000      -2.21030000
