18
Properties=species:S:1:pos:R:3 pbc="F F F"
N       -0.02840000       1.42280000       0.08330000
C       -0.09960000      -0.00250000      -0.05090000
C       -1.36260000      -0.78290000       0.00350000
N       -1.50150000      -1.81640000       0.95680000
C       -2.49080000      -0.08890000      -0.78040000
C       -1.60510000      -0.05400000      -2.06400000
C       -0.48600000      -0.78880000      -1.31560000
C        0.33890000      -1.80970000      -1.85580000
N        1.00700000      -2.64540000      -2.30240000
H        0.81970000       1.78180000      -0.34410000
H       -0.81120000       1.88810000      -0.36170000
H        0.70090000      -0.50560000       0.48510000
H       -1.53280000      -1.46140000       1.90590000
H       -2.32160000      -2.38910000       0.79280000
H       -3.35060000      -0.75180000      -0.90710000
H       -2.85470000       0.86430000      -0.38030000
H       -2.02170000      -0.63650000      -2.88610000
H       -1.33500000       0.93720000      -2.44160000
