19
Properties=species:S:1:pos:R:3 pbc="F F F"
C       -0.05760000       1.54430000       0.06530000
C       -0.03030000       0.01070000       0.01670000
C        0.68290000      -0.52640000      -1.19870000
C        0.13490000      -0.30870000      -2.64330000
C        0.89820000      -1.57800000      -3.00810000
C        0.93350000      -2.04060000      -1.60280000
N        2.20470000      -1.62110000      -2.25560000
C        2.20060000      -0.36980000      -1.43030000
H        0.95570000       1.95990000       0.07970000
H       -0.57450000       1.95970000      -0.80600000
H       -0.57520000       1.89960000       0.96110000
H        0.45850000      -0.37640000       0.92060000
H       -1.05770000      -0.37590000       0.03590000
H       -0.94470000      -0.47820000      -2.69540000
H        0.38780000       0.62990000      -3.14920000
H        0.86050000      -2.15840000      -3.92050000
H        0.77600000      -2.99880000      -1.12450000
H        2.56430000       0.53120000      -1.93960000
H        2.79520000      -0.55200000      -0.53010000
