18
Properties=species:S:1:pos:R:3 pbc="F F F"
C       -0.47130000       1.04150000       0.19250000
O        0.59790000       0.15410000      -0.08770000
C        0.99570000      -0.57480000       1.02480000
C        0.15580000      -1.64280000       1.65440000
O       -0.66570000      -2.29540000       0.69270000
C        0.51660000      -2.81770000       0.00840000
C        0.49940000      -2.63650000      -1.49460000
C        1.44810000      -2.00290000       0.91380000
H       -0.19630000       1.77320000       0.96690000
H       -0.69310000       1.57560000      -0.73410000
H       -1.36440000       0.49470000       0.52020000
H        1.57540000      -0.00330000       1.75570000
H       -0.13820000      -1.69700000       2.69730000
H        0.60520000      -3.88220000       0.26400000
H        0.42960000      -1.58170000      -1.75790000
H        1.41580000      -3.05350000      -1.92690000
H       -0.35030000      -3.17610000      -1.92610000
H        2.41050000      -2.34160000       1.27460000
