18
Properties=species:S:1:pos:R:3 pbc="F F F"
C        0.03530000       1.51020000       0.00970000
C        0.03020000       0.05400000       0.00210000
C        0.03620000      -1.15010000      -0.00430000
C        0.00990000      -2.60830000      -0.01190000
C       -1.41930000      -3.18430000      -0.00140000
C       -1.41720000      -4.72560000      -0.00970000
C       -2.75920000      -5.29400000       0.00020000
C       -3.87660000      -5.73670000       0.00840000
H        1.05750000       1.90480000       0.00190000
H       -0.48150000       1.91630000      -0.86700000
H       -0.46440000       1.90700000       0.90040000
H        0.54520000      -2.98300000      -0.89550000
H        0.56200000      -2.99250000       0.85710000
H       -1.95300000      -2.82440000       0.88350000
H       -1.96980000      -2.81490000      -0.87190000
H       -0.87440000      -5.08630000      -0.89380000
H       -0.85750000      -5.09570000       0.85990000
H       -4.85950000      -6.13790000       0.01480000
