14
Properties=species:S:1:pos:R:3 pbc="F F F"
N       -0.06600000       1.27600000       0.18200000
C        0.01430000       0.01890000       0.01070000
N        1.11720000      -0.80970000      -0.15470000
C        0.78060000      -2.21190000      -0.06740000
C        0.14510000      -2.67830000       1.20700000
C       -0.72210000      -2.29670000       0.00090000
C       -1.22290000      -0.88680000      -0.05120000
O       -2.35910000      -0.51560000      -0.16490000
H        0.85780000       1.71440000       0.21180000
H        2.00660000      -0.50440000       0.21450000
H        1.36120000      -2.88530000      -0.68730000
H        0.16840000      -3.73650000       1.44290000
H        0.16450000      -2.01490000       2.06510000
H       -1.29630000      -3.07040000      -0.49000000
