20
Properties=species:S:1:pos:R:3 pbc="F F F"
C       -0.14970000       1.55720000       0.02280000
C        0.03990000       0.03320000      -0.02110000
C        0.81080000      -0.50700000       1.19610000
C        2.24900000       0.04060000       1.31080000
C        2.98510000      -0.57380000       2.41340000
N        3.55150000      -1.07100000       3.28930000
C       -1.32400000      -0.68290000      -0.13370000
C       -2.00790000      -0.41090000      -1.45530000
O       -3.11820000       0.03430000      -1.58470000
H        0.80440000       2.09090000      -0.00540000
H       -0.74210000       1.90760000      -0.82780000
H       -0.67840000       1.85660000       0.93510000
H        0.62110000      -0.21690000      -0.92200000
H        0.26400000      -0.26960000       2.11640000
H        0.86140000      -1.59960000       1.13770000
H        2.80040000      -0.14420000       0.38090000
H        2.24530000       1.12440000       1.46490000
H       -1.16690000      -1.76950000      -0.07200000
H       -1.99750000      -0.39030000       0.67810000
H       -1.38510000      -0.66300000      -2.34730000
