14
Properties=species:S:1:pos:R:3 pbc="F F F"
O       -0.81020000       0.42800000      -1.94340000
C       -0.11640000      -0.23160000      -0.90240000
C       -0.93910000      -0.22060000       0.36470000
O       -1.98570000      -1.18540000       0.48260000
C       -0.92200000      -1.26410000       1.42260000
C       -0.04050000      -2.47330000       1.38510000
O        0.73930000      -2.73790000       2.26480000
C       -0.19830000      -3.37550000       0.22470000
N       -0.28830000      -4.11510000      -0.65940000
H       -1.57600000      -0.11120000      -2.17060000
H        0.16230000      -1.25480000      -1.18170000
H        0.80430000       0.33770000      -0.73490000
H       -1.22910000       0.77780000       0.69620000
H       -1.14760000      -0.95440000       2.44220000
