18
Properties=species:S:1:pos:R:3 pbc="F F F"
O        0.08740000      -0.07550000       0.50090000
C        0.06520000       1.13380000       0.38820000
N        1.12750000       1.89390000       0.02740000
C        2.47140000       1.31260000      -0.19000000
C        3.27780000       2.50780000      -0.66540000
C        2.57420000       3.62110000      -0.48770000
C        2.17570000       4.89590000      -1.19850000
C        0.72610000       4.27490000      -1.19640000
C        1.18380000       3.34360000      -0.00560000
H       -0.84490000       1.74400000       0.56140000
H        2.84470000       0.83950000       0.72890000
H        2.42630000       0.52330000      -0.95000000
H        4.21250000       2.39480000      -1.19990000
H        2.22650000       5.79010000      -0.56960000
H        2.64640000       5.10620000      -2.15990000
H       -0.10620000       4.95400000      -0.99840000
H        0.53890000       3.69660000      -2.10270000
H        0.90930000       3.79640000       0.95590000
