17
Properties=species:S:1:pos:R:3 pbc="F F F"
O        0.00830000       0.05810000      -0.25990000
C        0.06370000       1.25940000      -0.10230000
N        1.19570000       1.95280000       0.16480000
C        2.59620000       1.51130000       0.04780000
C        3.01320000       3.01160000      -0.00680000
C        3.04750000       3.70100000      -1.39220000
N        2.05980000       3.01780000      -2.25210000
C        1.59830000       4.05260000      -1.30430000
C        1.50360000       3.38290000       0.09750000
H       -0.82620000       1.92360000      -0.13340000
H        2.94890000       0.96950000       0.93050000
H        2.78880000       0.92710000      -0.85440000
H        3.73080000       3.37600000       0.72450000
H        3.87560000       4.24840000      -1.82490000
H        2.10320000       3.44780000      -3.17470000
H        1.05850000       4.92550000      -1.65100000
H        1.09820000       4.00900000       0.89440000
