21
Properties=species:S:1:pos:R:3 pbc="F F F"
C       -0.00710000       1.53030000       0.03700000
C       -0.02330000      -0.01110000       0.00970000
C       -1.47700000      -0.51610000      -0.00250000
C        0.73230000      -0.50930000      -1.21620000
C        1.86060000      -1.20180000      -1.06350000
C        2.30070000      -1.44720000       0.36490000
C        1.11260000      -2.03780000       1.16120000
C        0.73360000      -0.54220000       1.25300000
O        2.14380000      -0.20090000       1.11580000
H        1.01790000       1.89420000       0.13520000
H       -0.43700000       1.94400000      -0.88160000
H       -0.59540000       1.90960000       0.88110000
H       -2.01270000      -0.12770000      -0.87530000
H       -1.53180000      -1.60790000      -0.03780000
H       -2.01290000      -0.17620000       0.89140000
H        0.32660000      -0.26400000      -2.19510000
H        2.43870000      -1.58820000      -1.89630000
H        3.30060000      -1.87220000       0.47000000
H        0.44800000      -2.73760000       0.65350000
H        1.41880000      -2.42500000       2.13460000
H        0.30460000      -0.16110000       2.18550000
