14
Properties=species:S:1:pos:R:3 pbc="F F F"
N        0.06300000       1.27140000       0.00690000
C       -0.02840000       0.01050000       0.00380000
N       -1.24110000      -0.68110000       0.01170000
C       -1.29410000      -2.13480000       0.00800000
C       -2.78240000      -2.39470000       0.01920000
N       -3.32970000      -3.52340000       0.02030000
O       -3.42700000      -1.18180000       0.02790000
C       -2.51480000      -0.12230000       0.02370000
O       -2.85930000       1.01270000       0.02950000
H        1.04320000       1.54840000      -0.00020000
H        0.81090000      -0.69560000      -0.00500000
H       -0.83150000      -2.56780000      -0.88520000
H       -0.81720000      -2.57280000       0.89120000
H       -4.34730000      -3.44440000       0.02870000
