21
Properties=species:S:1:pos:R:3 pbc="F F F"
C       -0.20040000       1.53670000      -0.03120000
C        0.01880000       0.03230000       0.02550000
C        1.16480000      -0.67180000      -0.78500000
C        2.18060000      -0.12800000       0.26900000
C        0.95640000      -0.63220000       1.09500000
C        0.96760000      -1.86410000       0.16850000
C        0.12430000      -3.09530000       0.07420000
C        1.63220000      -3.19280000       0.23360000
O        2.32790000      -3.68160000      -0.88260000
H        0.71960000       2.11930000       0.05940000
H       -0.67570000       1.81570000      -0.97830000
H       -0.87210000       1.85340000       0.77470000
H       -0.94170000      -0.48490000      -0.07110000
H        1.28480000      -0.70900000      -1.86880000
H        3.10660000      -0.69700000       0.38920000
H        2.38310000       0.94360000       0.26920000
H        0.83770000      -0.62180000       2.18000000
H       -0.49780000      -3.38990000       0.91390000
H       -0.26330000      -3.37430000      -0.90070000
H        2.00670000      -3.54640000       1.19600000
H        3.15160000      -3.18860000      -0.95500000
