16
Properties=species:S:1:pos:R:3 pbc="F F F"
N        0.06420000      -1.13200000      -0.05650000
C       -0.00940000       0.02400000      -0.02760000
C       -0.05370000       1.44750000       0.01510000
C       -1.20510000       2.13580000       0.04590000
C       -1.07480000       3.64260000       0.07310000
C       -0.09680000       4.04560000       1.20440000
C        0.94010000       3.72180000       0.10530000
C        1.26020000       2.22240000       0.02350000
O       -0.06430000       4.02870000      -0.90600000
H       -2.17360000       1.64950000       0.05870000
H       -2.01630000       4.17630000      -0.06170000
H       -0.13470000       5.11560000       1.41210000
H       -0.09950000       3.46460000       2.12810000
H        1.83110000       4.34660000       0.01090000
H        1.88380000       1.90840000       0.86930000
H        1.82830000       2.00650000      -0.88860000
