16
Properties=species:S:1:pos:R:3 pbc="F F F"
N        0.15600000       1.46030000      -0.08720000
C        0.00790000       0.04800000      -0.10880000
C        0.28580000      -0.87030000      -1.36040000
C       -0.38260000      -1.92070000      -0.46120000
O        0.55820000      -2.02980000       0.66210000
C        0.84350000      -0.70950000       0.90990000
O        1.56150000      -0.31290000       1.77880000
C       -1.33260000      -0.80720000       0.04390000
O       -1.99580000      -0.92560000       1.25730000
H       -0.72050000       1.94450000      -0.23630000
H        0.55040000       1.75810000       0.80000000
H       -0.31130000      -0.59140000      -2.23060000
H        1.32650000      -1.04530000      -1.63540000
H       -0.69200000      -2.91450000      -0.77060000
H       -2.06790000      -0.50780000      -0.70700000
H       -1.41520000      -1.37880000       1.88190000
