15
Properties=species:S:1:pos:R:3 pbc="F F F"
N       -0.07610000       1.49330000      -0.00100000
C       -0.07500000       0.06180000      -0.02210000
C       -1.32060000      -0.77060000       0.06690000
C       -2.45820000      -0.16510000      -0.75810000
N       -1.54630000       0.01540000      -1.93940000
C       -0.49230000      -0.76190000      -1.23950000
C        0.28270000      -1.76940000      -1.87260000
N        0.92120000      -2.58440000      -2.39390000
H        0.86030000       1.83340000      -0.19960000
H       -0.66740000       1.83180000      -0.75780000
H        0.75440000      -0.37730000       0.52420000
H       -1.43440000      -1.56270000       0.79570000
H       -3.25330000      -0.89190000      -0.94590000
H       -2.89880000       0.76770000      -0.39180000
H       -1.89120000      -0.47230000      -2.75850000
