16
Properties=species:S:1:pos:R:3 pbc="F F F"
O        0.24730000       1.29850000      -0.37390000
C        0.05390000      -0.08390000      -0.05450000
C        0.75240000      -0.48100000       1.21970000
C        0.40410000      -0.05500000       2.45340000
C       -0.78330000       0.66590000       2.82510000
C       -1.96880000       0.67710000       2.15570000
C       -2.27380000      -0.02980000       0.94120000
C       -1.40350000      -0.46070000       0.00240000
H       -0.15110000       1.80920000       0.34010000
H        0.52070000      -0.61210000      -0.88990000
H        1.64660000      -1.09020000       1.11800000
H        1.08560000      -0.28210000       3.27100000
H       -0.75530000       1.16380000       3.79140000
H       -2.80350000       1.18300000       2.63480000
H       -3.32910000      -0.24060000       0.77800000
H       -1.78680000      -1.05790000      -0.82080000
