22
Properties=species:S:1:pos:R:3 pbc="F F F"
C        0.05230000       1.55140000       0.00960000
C        0.02240000       0.01470000      -0.00500000
C       -1.43880000      -0.47380000       0.01410000
C        0.72320000      -0.61080000      -1.22890000
C        2.18540000      -0.34760000      -1.49620000
C        1.76790000      -1.57300000      -0.71920000
N        1.75780000      -1.60790000       0.74550000
C        2.20230000      -0.39550000       1.44730000
C        0.75620000      -0.61860000       1.19570000
H        1.07400000       1.93920000      -0.02540000
H       -0.48880000       1.95930000      -0.85110000
H       -0.42180000       1.94230000       0.91650000
H       -1.98430000      -0.10480000      -0.86080000
H       -1.48710000      -1.56750000       0.00780000
H       -1.96070000      -0.11690000       0.90830000
H        0.09230000      -0.85790000      -2.07690000
H        2.53110000      -0.51860000      -2.51080000
H        2.69140000       0.47560000      -1.00830000
H        1.92520000      -2.54820000      -1.16590000
H        2.60260000      -0.57730000       2.44170000
H        2.72850000       0.37940000       0.90200000
H        0.12920000      -0.92520000       2.03120000
