19
Properties=species:S:1:pos:R:3 pbc="F F F"
C       -0.22740000       1.52220000      -0.03420000
C       -0.07440000       0.00360000      -0.07950000
C        0.75130000      -0.45810000      -1.26370000
O        1.24390000       0.27980000      -2.09330000
N        0.93750000      -1.82690000      -1.37690000
C        1.68560000      -2.55290000      -2.41220000
C        1.30200000      -3.86960000      -1.67590000
C        0.56070000      -2.97770000      -0.67090000
N       -0.13160000      -3.07630000       0.38090000
H        0.74620000       2.01380000       0.03520000
H       -0.71540000       1.89560000      -0.93800000
H       -0.82750000       1.81640000       0.83130000
H        0.38950000      -0.38720000       0.83370000
H       -1.04570000      -0.50320000      -0.12180000
H        1.26830000      -2.42730000      -3.41380000
H        2.74980000      -2.30730000      -2.42750000
H        0.65690000      -4.54960000      -2.23540000
H        2.13660000      -4.42980000      -1.25020000
H       -0.23420000      -4.05270000       0.65380000
