19
Properties=species:S:1:pos:R:3 pbc="F F F"
O        0.13020000       1.50220000       0.46710000
C        0.01020000       0.13280000       0.26000000
C       -0.49220000      -0.83560000       1.28530000
C       -1.66900000      -0.20690000       2.04310000
C       -2.48260000      -0.16490000       0.70700000
C       -3.21800000       1.06720000       0.24470000
C       -3.65260000       2.13390000       1.15700000
O       -2.52600000       2.32770000       0.29140000
C       -1.23840000      -0.64130000      -0.06540000
H       -0.74270000       1.92220000       0.43000000
H        0.87100000      -0.24330000      -0.29030000
H        0.08180000      -1.68730000       1.63040000
H       -2.12700000      -0.84770000       2.79740000
H       -1.42950000       0.76120000       2.49340000
H       -3.21650000      -0.97880000       0.72240000
H       -3.78590000       0.93780000      -0.67830000
H       -4.52170000       2.74150000       0.91280000
H       -3.41620000       2.05970000       2.21600000
H       -1.28520000      -1.30060000      -0.92580000
