12
Properties=species:S:1:pos:R:3 pbc="F F F"
N       -0.06700000       1.28640000       0.23590000
C        0.03150000       0.06270000      -0.04840000
N       -1.09940000      -0.71090000      -0.31050000
C       -1.15530000      -2.09600000      -0.25160000
O       -2.16500000      -2.72780000      -0.14590000
O        0.07100000      -2.68390000      -0.32530000
C        1.09970000      -1.85730000      -0.82940000
O        1.19420000      -0.64360000      -0.10970000
H        0.85320000       1.70450000       0.35350000
H       -1.98360000      -0.23210000      -0.21700000
H        2.03830000      -2.38820000      -0.68220000
H        0.92250000      -1.64910000      -1.89240000
