17
Properties=species:S:1:pos:R:3 pbc="F F F"
C       -0.38360000       1.64830000      -0.06390000
C       -0.13570000       0.15940000      -0.05490000
O        1.06790000      -0.20350000      -0.84430000
C        1.69090000      -0.71760000       0.25700000
N        2.85600000      -1.16150000       0.42660000
C        0.52050000      -0.50060000       1.18700000
C        0.72270000       0.31320000       2.46550000
N        1.95740000       0.17600000       3.00550000
O       -0.17680000       0.97590000       2.94640000
H        0.50130000       2.19660000       0.27040000
H       -0.64010000       1.97930000      -1.07430000
H       -1.20470000       1.88750000       0.61580000
H       -0.99160000      -0.39550000      -0.44660000
H        3.40930000      -1.12850000      -0.43020000
H        0.03710000      -1.44010000       1.47030000
H        2.68110000      -0.33600000       2.51820000
H        2.16380000       0.66010000       3.86380000
