16
Properties=species:S:1:pos:R:3 pbc="F F F"
O        0.24060000       1.12090000      -0.72340000
C       -0.00800000       0.01770000       0.16620000
C       -1.43170000      -0.48940000       0.09850000
N       -1.99420000      -0.86130000       1.25010000
C       -3.22640000      -1.37290000       1.22370000
C       -3.95420000      -1.52760000       0.04650000
C       -3.38460000      -1.12570000      -1.15390000
C       -2.09820000      -0.58930000      -1.13890000
O       -1.53200000      -0.19890000      -2.30470000
H       -0.28010000       1.87040000      -0.41250000
H        0.69440000      -0.75890000      -0.15820000
H        0.22880000       0.27430000       1.20380000
H       -3.64710000      -1.66780000       2.18100000
H       -4.95360000      -1.94830000       0.07140000
H       -3.90800000      -1.21420000      -2.09950000
H       -0.74990000       0.34020000      -2.08360000
