16
Properties=species:S:1:pos:R:3 pbc="F F F"
N        0.32750000       0.50230000      -0.74250000
C       -0.18520000       0.23960000       0.48520000
O        0.12730000       0.81920000       1.50490000
C       -1.29630000      -0.83210000       0.50180000
C       -1.02110000      -2.06810000      -0.33820000
O       -0.65340000      -2.01490000      -1.50090000
N       -1.23150000      -3.26550000       0.30470000
C       -1.06540000      -4.50840000      -0.29620000
N       -1.29090000      -5.56340000       0.37080000
H        1.10700000       1.13810000      -0.79410000
H        0.14870000      -0.14610000      -1.49790000
H       -1.48760000      -1.06940000       1.54870000
H       -2.20120000      -0.36750000       0.09080000
H       -1.52850000      -3.27790000       1.27020000
H       -0.74110000      -4.42540000      -1.33460000
H       -1.12560000      -6.38880000      -0.20220000
