16
Properties=species:S:1:pos:R:3 pbc="F F F"
N       -0.04250000       1.41910000      -0.21660000
C       -0.02760000       0.00160000      -0.02050000
C        0.40630000      -0.85920000      -1.24910000
C       -0.87470000      -1.73930000      -1.10800000
C       -1.27560000      -0.93820000       0.14020000
O       -0.67590000      -1.50010000       1.35200000
C        0.39410000      -0.62540000       1.29890000
N        1.32590000      -0.41820000       2.11290000
H       -0.09330000       1.90670000       0.67300000
H        0.81980000       1.71730000      -0.66210000
H        0.40790000      -0.25880000      -2.16140000
H        1.36970000      -1.36200000      -1.14990000
H       -1.57140000      -1.61380000      -1.93980000
H       -0.72400000      -2.80490000      -0.92650000
H       -2.30190000      -0.61740000       0.31390000
H        1.25520000      -1.02810000       2.92950000
