18
Properties=species:S:1:pos:R:3 pbc="F F F"
O        0.42860000      -0.26490000       0.60990000
C        0.21530000       0.73680000      -0.02160000
C        1.24090000       1.86250000      -0.17160000
C        0.83120000       2.90600000      -1.20520000
N        0.67300000       2.26260000      -2.50400000
C        0.70420000       3.13890000      -3.66830000
C        1.85460000       2.24340000      -3.36510000
C        1.50760000       2.45400000       1.20960000
O        1.45830000       3.63000000       1.45670000
H       -0.76060000       0.92690000      -0.51400000
H        2.17710000       1.36510000      -0.46540000
H       -0.13130000       3.34640000      -0.91870000
H        1.56250000       3.72960000      -1.21490000
H        0.00750000       2.89230000      -4.46390000
H        0.84670000       4.20490000      -3.49870000
H        2.76350000       2.71450000      -2.99340000
H        2.01150000       1.33270000      -3.93520000
H        1.75030000       1.69560000       1.98230000
