19
Properties=species:S:1:pos:R:3 pbc="F F F"
C       -0.03030000      -1.23100000      -0.03850000
C       -0.00850000      -0.03100000       0.01450000
C        0.01980000       1.42520000       0.05820000
C        1.43770000       2.00790000       0.02990000
C        1.43130000       3.53370000      -0.09610000
O        2.74720000       4.05310000      -0.01540000
C        3.38090000       3.66450000       1.19410000
C        3.39880000       2.14590000       1.31850000
O        2.07870000       1.63020000       1.24030000
H       -0.04940000      -2.29170000      -0.07610000
H       -0.54350000       1.83050000      -0.79230000
H       -0.47840000       1.78130000       0.96830000
H        1.99320000       1.58960000      -0.82540000
H        1.03170000       3.84460000      -1.06620000
H        0.79870000       3.96110000       0.70090000
H        4.39620000       4.07110000       1.16370000
H        2.85110000       4.09840000       2.05820000
H        4.02380000       1.71710000       0.51860000
H        3.80340000       1.83300000       2.28580000
