15
Properties=species:S:1:pos:R:3 pbc="F F F"
N       -0.01980000       1.17820000       0.45470000
C       -0.01990000      -0.01390000       0.08430000
O        1.02580000      -0.85540000      -0.28400000
C        0.12400000      -1.92400000      -0.65410000
C       -0.20810000      -2.90150000       0.49860000
N       -1.21390000      -1.95310000       1.04650000
C       -1.08990000      -1.06960000      -0.13420000
C        0.29310000      -2.41260000      -2.05850000
O        0.99090000      -1.88910000      -2.88510000
H        0.92470000       1.56470000       0.49970000
H       -0.63420000      -3.83860000       0.11830000
H        0.62060000      -3.12710000       1.17540000
H       -2.13760000      -2.34900000       1.16380000
H       -1.98940000      -0.81080000      -0.69160000
H       -0.31850000      -3.31540000      -2.28790000
