19
Properties=species:S:1:pos:R:3 pbc="F F F"
C       -0.01890000       1.50350000       0.12440000
C       -0.03880000       0.05310000       0.02040000
C       -0.06250000      -1.14960000      -0.05430000
C       -0.04590000      -2.56510000      -0.18410000
C        0.77470000      -3.42750000      -1.16270000
C       -0.38170000      -4.49560000      -1.13520000
C       -0.05510000      -5.90880000      -0.67470000
C       -1.12140000      -3.58590000      -0.13740000
O       -0.26400000      -3.38800000       0.98560000
H        0.87760000       1.92210000      -0.34600000
H       -0.89180000       1.95220000      -0.36270000
H       -0.02270000       1.82170000       1.17270000
H        0.90350000      -2.96320000      -2.14230000
H        1.74460000      -3.74590000      -0.77310000
H       -0.90230000      -4.50600000      -2.09820000
H        0.41020000      -5.88550000       0.31460000
H       -0.95870000      -6.52540000      -0.61430000
H        0.63670000      -6.39850000      -1.36810000
H       -2.18730000      -3.47000000       0.02830000
