19
Properties=species:S:1:pos:R:3 pbc="F F F"
C       -0.03720000       1.49720000       0.01080000
C       -0.01970000      -0.02200000       0.00200000
O       -1.35280000      -0.48730000       0.01230000
C       -1.45150000      -1.89410000       0.00570000
C       -2.89570000      -2.27670000       0.01650000
C       -3.98920000      -1.45260000       0.02730000
N       -5.07790000      -2.30020000       0.03420000
C       -4.59840000      -3.57460000       0.02690000
N       -3.28560000      -3.59810000       0.01630000
H        0.98360000       1.89080000       0.00310000
H       -0.56370000       1.87950000      -0.86840000
H       -0.54640000       1.86940000       0.90450000
H        0.50770000      -0.39810000      -0.89140000
H        0.52480000      -0.40820000       0.88070000
H       -0.95430000      -2.31770000      -0.88430000
H       -0.93870000      -2.32720000       0.88220000
H       -4.08560000      -0.38150000       0.03080000
H       -6.04500000      -2.02420000       0.04300000
H       -5.24870000      -4.43670000       0.03000000
