24
Properties=species:S:1:pos:R:3 pbc="F F F"
C        1.64170000       0.58440000      -1.63380000
C        0.78170000      -0.28200000      -0.73750000
N        1.23700000      -0.83060000       0.54520000
C        2.56610000      -0.52780000       1.05210000
C        0.16420000       0.17840000       0.55230000
C        0.40670000       1.58780000       1.06750000
C       -1.18870000      -0.40530000       0.94450000
C       -1.33380000      -0.66250000       2.44770000
O       -2.57540000      -1.26710000       2.77960000
H        2.20990000       1.34580000      -1.09780000
H        2.35690000      -0.03300000      -2.18880000
H        1.01230000       1.09700000      -2.36930000
H        0.20190000      -1.00840000      -1.31020000
H        2.93880000       0.48740000       0.85760000
H        2.57300000      -0.68220000       2.13620000
H        3.27880000      -1.23390000       0.61290000
H        1.33420000       2.02970000       0.70230000
H       -0.41400000       2.24340000       0.75660000
H        0.44350000       1.60840000       2.16200000
H       -1.99930000       0.25560000       0.61230000
H       -1.31460000      -1.36130000       0.42130000
H       -0.48380000      -1.27090000       2.79260000
H       -1.31390000       0.27740000       3.00870000
H       -2.60450000      -2.12550000       2.34500000
