21
Properties=species:S:1:pos:R:3 pbc="F F F"
C       -0.11540000       1.57510000       0.12690000
C        0.06280000       0.06720000       0.01230000
O       -1.19230000      -0.57250000      -0.18030000
C        1.14740000      -0.48320000      -0.98770000
C        1.78010000      -1.28140000       0.16820000
C        2.29100000      -2.68730000       0.06460000
O        3.57740000      -2.77920000      -0.54110000
C        2.22420000      -0.32260000       1.23480000
C        0.76620000      -0.68310000       1.14900000
H        0.83060000       2.08240000       0.33470000
H       -0.51010000       1.98910000      -0.81010000
H       -0.82160000       1.81170000       0.92870000
H       -1.61640000      -0.16400000      -0.94310000
H        0.67000000      -1.11720000      -1.73950000
H        1.79560000       0.24930000      -1.48180000
H        2.40750000      -3.11400000       1.06690000
H        1.55950000      -3.31220000      -0.47290000
H        3.50250000      -2.43160000      -1.43550000
H        2.75660000      -0.77080000       2.06800000
H        2.57440000       0.67410000       0.97690000
H        0.23200000      -1.16300000       1.96070000
