18
Properties=species:S:1:pos:R:3 pbc="F F F"
O        0.17700000      -0.15800000      -0.51130000
C        0.02970000       1.01940000      -0.31410000
C        1.15010000       1.99690000       0.01310000
C        1.30560000       2.99680000      -1.09960000
C        0.95720000       4.28540000      -1.07900000
C        1.27870000       4.99340000      -2.37210000
C        1.60210000       3.82460000      -3.34050000
C        1.92390000       2.61300000      -2.43040000
H       -0.97410000       1.49820000      -0.38610000
H        0.88650000       2.51180000       0.94550000
H        2.06700000       1.41910000       0.17040000
H        0.53450000       4.79640000      -0.21980000
H        0.45460000       5.61960000      -2.73240000
H        2.13720000       5.66750000      -2.23930000
H        0.71720000       3.59960000      -3.94400000
H        2.41270000       4.06050000      -4.03410000
H        3.00660000       2.46220000      -2.31020000
H        1.53090000       1.66940000      -2.82620000
