15
Properties=species:S:1:pos:R:3 pbc="F F F"
O       -0.04510000      -0.06220000      -0.03750000
C       -0.03010000       1.14200000       0.02680000
C       -1.23570000       2.04470000       0.10630000
C       -0.89460000       3.33990000      -0.01950000
C        0.58400000       3.46620000      -0.05910000
C        1.42480000       3.05450000       1.10650000
C        1.16280000       2.07300000      -0.03170000
C        1.91300000       2.53620000      -1.29170000
O        1.36090000       3.88420000      -1.19130000
H       -2.23460000       1.64910000       0.24800000
H       -1.57960000       4.18040000      -0.03970000
H        2.42350000       3.46890000       1.20660000
H        0.90600000       2.85660000       2.03690000
H        3.00700000       2.53800000      -1.24760000
H        1.57470000       2.04070000      -2.20680000
