20
Properties=species:S:1:pos:R:3 pbc="F F F"
C       -0.22070000       1.50130000       0.04980000
C       -0.07070000      -0.01660000      -0.05680000
C       -1.38970000      -0.67900000      -0.43590000
C        1.17660000      -0.45260000      -0.88550000
N        1.91500000      -0.74300000       0.37280000
H        2.40360000      -1.63130000       0.39670000
H        2.47890000       0.50820000       1.73550000
C        0.66690000      -0.67820000       1.16990000
C        0.79860000       0.15770000       2.43800000
O        1.98210000       0.78230000       2.53840000
O       -0.08260000       0.27160000       3.24860000
H        0.72510000       1.98420000       0.31240000
H       -0.55830000       1.91620000      -0.90590000
H       -0.95550000       1.76690000       0.81590000
H       -1.75870000      -0.29320000      -1.39290000
H       -1.28400000      -1.76490000      -0.52890000
H       -2.15310000      -0.47870000       0.32330000
H        0.98800000      -1.34060000      -1.50030000
H        1.65020000       0.31400000      -1.50720000
H        0.22560000      -1.64410000       1.43650000
