19
Properties=species:S:1:pos:R:3 pbc="F F F"
C        0.02060000       1.48020000       0.12490000
C       -0.01500000      -0.01060000      -0.03150000
C        0.79870000      -0.71650000      -1.12880000
C        0.62370000      -2.18940000      -0.62620000
O        1.82070000      -2.78590000      -0.18110000
C       -0.33020000      -1.88160000       0.53990000
O        0.39000000      -0.77110000       1.18590000
C       -1.33560000      -0.84330000      -0.00200000
O       -2.29400000      -0.40380000       0.91830000
H        1.01780000       1.81100000       0.43180000
H       -0.22330000       1.96540000      -0.82550000
H       -0.70570000       1.81010000       0.87280000
H        0.39200000      -0.54400000      -2.12940000
H        1.85290000      -0.42810000      -1.12400000
H        0.19750000      -2.86100000      -1.37530000
H        2.11890000      -2.24490000       0.56230000
H       -0.60750000      -2.68790000       1.21900000
H       -1.84880000      -1.03920000      -0.94700000
H       -1.82880000      -0.28390000       1.75690000
