21
Properties=species:S:1:pos:R:3 pbc="F F F"
O        0.03430000      -0.14460000      -0.19560000
C        0.01340000       1.05060000      -0.01240000
C       -1.31500000       1.80140000       0.09280000
C       -1.71670000       2.57880000      -1.19390000
C       -1.40070000       4.08360000      -1.20430000
C        0.05210000       4.47070000      -0.83550000
C        1.08690000       3.70390000      -1.60780000
C        1.63220000       2.55380000      -1.20680000
C        1.32020000       1.85000000       0.09730000
H       -2.06320000       1.03230000       0.29800000
H       -1.29310000       2.48400000       0.95150000
H       -1.25720000       2.09370000      -2.06050000
H       -2.79800000       2.47010000      -1.32800000
H       -1.63620000       4.47210000      -2.20270000
H       -2.07310000       4.60050000      -0.50790000
H        0.17500000       5.54710000      -0.99940000
H        0.19530000       4.30690000       0.23870000
H        1.36530000       4.09900000      -2.58270000
H        2.32680000       2.03730000      -1.86360000
H        1.23370000       2.57230000       0.91670000
H        2.11100000       1.13850000       0.34310000
