21
Properties=species:S:1:pos:R:3 pbc="F F F"
C        0.33960000       1.24390000       0.59750000
C       -0.08710000      -0.10540000       0.01110000
C       -1.61680000      -0.17230000      -0.18070000
O       -2.34460000      -0.05750000       1.03070000
C        0.60140000      -0.48890000      -1.29880000
C        0.57490000       0.42680000      -2.51970000
C        1.86650000       0.20220000      -1.81630000
C        0.56220000      -1.94690000      -1.62140000
O        0.94250000      -2.43520000      -2.65920000
H        1.40140000       1.25560000       0.85630000
H        0.14890000       2.07230000      -0.09510000
H       -0.21470000       1.44310000       1.51960000
H        0.16430000      -0.87780000       0.75210000
H       -1.92940000       0.58870000      -0.91250000
H       -1.89190000      -1.14680000      -0.59960000
H       -2.35260000       0.86760000       1.29140000
H        0.42440000      -0.06460000      -3.47410000
H        0.08730000       1.38850000      -2.40520000
H        2.28000000       1.00460000      -1.21820000
H        2.59210000      -0.44770000      -2.29150000
H        0.16280000      -2.59130000      -0.80510000
