16
Properties=species:S:1:pos:R:3 pbc="F F F"
C        0.02750000       1.35640000       0.20250000
N       -0.03540000      -0.05350000      -0.13800000
C       -1.25510000      -0.69740000      -0.06500000
N       -1.34310000      -2.02610000       0.05800000
N       -2.66190000      -2.25390000       0.03730000
C       -3.20270000      -3.59010000       0.13910000
N       -3.42810000      -1.18550000      -0.08140000
C       -2.56070000      -0.17050000      -0.14690000
H        1.06210000       1.69600000       0.11670000
H       -0.56860000       1.93930000      -0.50760000
H       -0.33400000       1.58500000       1.21750000
H        0.71640000      -0.61340000       0.23690000
H       -2.87890000      -4.05810000       1.07280000
H       -4.28820000      -3.50420000       0.12170000
H       -2.86260000      -4.20210000      -0.70100000
H       -2.90060000       0.84670000      -0.24580000
