11
Properties=species:S:1:pos:R:3 pbc="F F F"
C       -0.02320000      -1.16860000      -0.00310000
C       -0.02620000       0.03460000       0.00350000
C        0.01710000       1.45190000       0.01060000
N       -1.10370000       2.18850000       0.02910000
N       -0.66380000       3.45430000       0.03020000
C        0.68850000       3.56160000       0.01310000
C        1.17420000       2.27560000      -0.00020000
H       -0.03320000      -2.23010000      -0.00870000
H       -1.34050000       4.19870000       0.04310000
H        1.18300000       4.51980000       0.01180000
H        2.20320000       1.95830000      -0.01530000
