15
Properties=species:S:1:pos:R:3 pbc="F F F"
C       -0.02840000       1.50060000       0.07550000
C        0.03510000       0.01410000       0.00200000
C        0.02520000      -0.77690000      -1.08050000
C        0.10750000      -2.23050000      -0.66850000
O        0.16540000      -2.19980000       0.75160000
C        0.12540000      -0.86130000       1.22290000
C       -0.05010000      -0.35710000      -2.43170000
N       -0.11100000      -0.03210000      -3.54250000
H        0.85520000       1.90140000       0.58670000
H       -0.08840000       1.94950000      -0.91800000
H       -0.90070000       1.82280000       0.65710000
H       -0.76970000      -2.80450000      -1.00100000
H        1.00150000      -2.72520000      -1.07500000
H        1.02750000      -0.63750000       1.81530000
H       -0.74030000      -0.71650000       1.88960000
