19
Properties=species:S:1:pos:R:3 pbc="F F F"
O        0.26630000       1.13850000       0.28950000
C        0.03560000      -0.21660000      -0.08050000
C       -1.42940000      -0.54780000      -0.10610000
C       -2.17460000      -0.97120000       1.11250000
C       -2.09130000      -1.97240000      -0.02010000
C       -3.05840000      -1.59310000      -1.14620000
C       -2.41040000      -0.17330000      -1.22620000
C       -1.36450000      -3.23840000       0.13820000
O       -0.54150000      -3.46090000       1.00010000
H       -0.06180000       1.25140000       1.18790000
H        0.46710000      -0.31990000      -1.08190000
H        0.56010000      -0.91960000       0.58220000
H       -1.56700000      -1.24380000       1.96990000
H       -3.14570000      -0.54090000       1.34700000
H       -2.89770000      -2.17630000      -2.05660000
H       -4.12160000      -1.63440000      -0.88960000
H       -3.06520000       0.67610000      -1.01090000
H       -1.91000000       0.00720000      -2.17990000
H       -1.60640000      -4.00710000      -0.63120000
