15
Properties=species:S:1:pos:R:3 pbc="F F F"
O        0.00710000      -0.03500000      -0.12790000
C       -0.03420000       1.16680000      -0.03810000
C       -1.24100000       2.02910000       0.00920000
C       -0.89760000       3.32170000       0.05180000
C        0.60280000       3.53940000       0.04910000
O        1.07950000       4.12660000       1.25680000
C        1.36520000       3.04120000       2.11260000
O        1.87150000       2.00610000       1.29730000
C        1.19590000       2.10830000       0.04910000
H       -2.24390000       1.62000000       0.00300000
H       -1.58310000       4.16060000       0.10080000
H        0.93100000       4.17570000      -0.77690000
H        2.13410000       3.34380000       2.82770000
H        0.45660000       2.71090000       2.64410000
H        1.90990000       1.89060000      -0.74810000
