17
Properties=species:S:1:pos:R:3 pbc="F F F"
C        0.00440000       1.51180000       0.00780000
C        0.00870000       0.01400000      -0.00360000
C       -0.03870000      -0.79460000      -1.10930000
N       -0.01620000      -2.11050000      -0.67800000
C        0.04560000      -2.12750000       0.68380000
O        0.07670000      -3.34260000       1.29490000
C        0.06330000      -0.83650000       1.15850000
C        0.12610000      -0.40140000       2.59070000
H        0.90500000       1.92150000       0.48270000
H       -0.04140000       1.91210000      -1.00940000
H       -0.85360000       1.91600000       0.55990000
H       -0.08720000      -0.55550000      -2.15900000
H       -0.03660000      -2.93340000      -1.25320000
H        0.12150000      -3.19840000       2.24490000
H        1.01710000       0.20280000       2.80300000
H       -0.74380000       0.20130000       2.88050000
H        0.15700000      -1.25580000       3.27850000
