15
Properties=species:S:1:pos:R:3 pbc="F F F"
C        0.18380000       1.49610000      -0.20220000
C        1.63380000       1.36500000       0.38260000
C        2.28030000       0.42400000      -0.39670000
C        1.94030000      -1.02560000       0.16280000
N        0.64700000      -0.96830000      -0.57970000
C        0.05460000      -0.06600000       0.15640000
N        0.23260000      -0.16070000       1.54520000
C        1.58450000      -0.73440000       1.63360000
C        1.40300000       0.75900000       1.74960000
H       -0.50570000       2.14020000       0.34730000
H        0.13440000       1.66930000      -1.27440000
H        2.32040000       0.50890000      -1.47860000
H        2.58210000      -1.87320000      -0.06740000
H        1.82630000      -1.39820000       2.45490000
H        1.43030000       1.31000000       2.68310000
