19
Properties=species:S:1:pos:R:3 pbc="F F F"
C       -0.01290000       1.64950000       0.19010000
C        1.43850000       1.17380000       0.05950000
O        1.10700000       0.01400000       0.94460000
C        0.00690000       0.10770000      -0.04780000
C       -1.14560000      -0.81180000      -0.28570000
C       -1.81040000      -0.29770000      -1.59880000
C       -0.87960000       0.30590000      -2.63800000
C        0.40850000       0.62480000      -2.46010000
C        1.05080000       0.26990000      -1.16000000
H       -0.30820000       1.94990000       1.19590000
H       -0.42170000       2.28930000      -0.59340000
H        2.37190000       1.69510000       0.27400000
H       -0.77060000      -1.83210000      -0.42180000
H       -1.87380000      -0.82720000       0.53100000
H       -2.38060000      -1.11320000      -2.05930000
H       -2.55960000       0.46540000      -1.34340000
H       -1.34890000       0.50830000      -3.59900000
H        0.98830000       1.05450000      -3.27320000
H        1.73420000      -0.58250000      -1.23440000
