16
Properties=species:S:1:pos:R:3 pbc="F F F"
C       -1.10620000       0.24340000       0.14010000
C        0.26500000       0.12760000      -0.46090000
N        1.19370000       0.97030000      -0.54170000
O        0.49700000      -1.09380000      -1.11360000
C        0.55960000      -2.22960000      -0.38080000
O        0.48400000      -2.27890000       0.81600000
C        0.78870000      -3.43590000      -1.28890000
C       -0.21920000      -3.57810000      -2.33050000
C       -1.05890000      -3.70730000      -3.17900000
H       -1.20790000      -0.46410000       0.96660000
H       -1.28070000       1.25610000       0.50770000
H       -1.86420000      -0.00400000      -0.60990000
H        0.91460000       1.84820000      -0.10430000
H        1.78190000      -3.32150000      -1.74190000
H        0.81730000      -4.31730000      -0.64320000
H       -1.79620000      -3.81960000      -3.93490000
