21
Properties=species:S:1:pos:R:3 pbc="F F F"
C        0.03400000       1.51630000       0.08770000
C       -0.08820000      -0.00790000      -0.03120000
C       -1.50880000      -0.48960000      -0.05290000
N       -2.50930000      -0.15970000      -1.12760000
C       -3.27970000      -1.03330000      -0.18650000
C       -2.03630000      -1.95210000       0.06410000
N       -2.07270000      -1.87570000       1.55590000
C       -3.06460000      -2.72550000       2.20840000
C       -2.55620000      -0.53210000       1.11900000
H        1.08370000       1.82340000       0.10810000
H       -0.44140000       2.02020000      -0.76030000
H       -0.43880000       1.88180000       1.00550000
H        0.40990000      -0.35090000      -0.94630000
H        0.41300000      -0.49750000       0.81170000
H       -2.82050000       0.81120000      -1.03310000
H       -4.32330000      -1.29570000      -0.36050000
H       -1.71380000      -2.83270000      -0.49310000
H       -2.69790000      -3.75720000       2.22850000
H       -3.19240000      -2.39820000       3.24560000
H       -4.05600000      -2.72460000       1.72440000
H       -2.85000000       0.25810000       1.81500000
