18
Properties=species:S:1:pos:R:3 pbc="F F F"
O        0.30830000       0.93380000       1.37270000
C       -0.05920000       1.27100000       0.10850000
O        0.63760000       0.99700000      -0.82970000
C       -1.36450000       2.00960000       0.02820000
C       -1.77880000       2.77320000      -1.23840000
C       -2.30330000       3.93840000      -0.33930000
C       -1.63180000       3.27950000       0.91240000
N       -2.43990000       2.46420000       1.82990000
H       -0.34160000       1.27880000       2.00540000
H       -3.30320000       2.86820000       2.18240000
C       -2.55970000       1.38110000       0.82220000
H       -0.90570000       3.05510000      -1.83020000
H       -2.49990000       2.27830000      -1.89330000
H       -1.92270000       4.92950000      -0.59350000
H       -3.39250000       3.99870000      -0.26060000
H       -0.84000000       3.86250000       1.38940000
H       -3.48480000       1.38100000       0.23170000
H       -2.40960000       0.37720000       1.23140000
