18
Properties=species:S:1:pos:R:3 pbc="F F F"
C        0.08920000       1.63460000       0.18340000
C        0.06950000       0.12160000       0.00450000
C       -1.30320000      -0.41220000       0.39240000
O       -2.01800000      -1.06070000      -0.32640000
C        0.63280000      -0.57270000      -1.25360000
C        2.08930000      -0.04610000      -1.33760000
C        2.30080000      -0.75570000       0.00010000
C        1.16060000      -1.66580000      -0.24560000
N        1.05110000      -0.66000000       0.85100000
H        1.10240000       2.03460000       0.11430000
H       -0.53140000       2.12380000      -0.57530000
H       -0.30260000       1.90500000       1.17010000
H       -1.60430000      -0.15240000       1.43230000
H        0.02160000      -0.72450000      -2.13880000
H        2.64600000      -0.56310000      -2.12360000
H        2.25810000       1.03120000      -1.42150000
H        3.21870000      -0.93570000       0.54390000
H        1.00740000      -2.72870000      -0.12120000
