20
Properties=species:S:1:pos:R:3 pbc="F F F"
C       -0.01660000       1.52690000       0.04660000
C       -0.03970000       0.02910000       0.06450000
N        1.15930000      -0.73600000      -0.31680000
C        0.59010000      -0.95700000       1.02170000
C        1.42520000      -0.73390000       2.24550000
C       -0.66320000      -1.83590000       0.92040000
C       -0.77240000      -3.32310000       1.03160000
O       -1.78890000      -1.03440000       1.33200000
C       -1.27350000      -0.86350000      -0.00360000
H        0.96100000       1.90150000       0.36060000
H       -0.21190000       1.91280000      -0.96060000
H       -0.78120000       1.92890000       0.71880000
H        0.94630000      -1.49530000      -0.96160000
H        2.10060000       0.11350000       2.10240000
H        0.78680000      -0.53280000       3.11160000
H        2.04000000      -1.61290000       2.47150000
H       -0.65230000      -3.64490000       2.07200000
H       -1.75090000      -3.66370000       0.68340000
H        0.00460000      -3.81590000       0.43780000
H       -1.96720000      -1.02230000      -0.82280000
