17
Properties=species:S:1:pos:R:3 pbc="F F F"
N        0.07340000       1.35240000       0.02580000
C       -0.07510000       0.00070000      -0.05440000
N       -1.18060000      -0.65850000       0.02340000
C       -0.72950000      -2.05390000       0.00130000
C       -0.68150000      -3.16870000      -1.12090000
C       -0.06070000      -2.12560000      -2.07290000
C        0.60960000      -1.92730000      -0.68340000
C        0.79430000      -3.45750000      -0.58270000
O        1.13200000      -0.66380000      -0.29190000
H        1.00350000       1.68210000       0.22760000
H       -0.67820000       1.83540000       0.49150000
H       -0.75480000      -2.47930000       1.01160000
H       -1.41500000      -3.93550000      -1.36340000
H        0.57760000      -2.50790000      -2.87240000
H       -0.71790000      -1.32590000      -2.41270000
H        0.87560000      -3.88300000       0.41980000
H        1.46800000      -3.93850000      -1.29480000
