20
Properties=species:S:1:pos:R:3 pbc="F F F"
C        0.33110000       1.60200000       0.03780000
C        0.15370000       0.09290000       0.07430000
N        0.75390000      -0.68060000      -1.04930000
C       -0.13590000      -1.19580000      -2.07200000
C        1.42930000      -1.65280000      -0.14700000
C        2.91500000      -1.82950000      -0.45350000
O        3.52260000      -0.58250000      -0.70440000
C        1.03750000      -0.73280000       1.02360000
O        1.31690000      -0.67550000       2.18220000
H        1.38700000       1.85960000      -0.08180000
H       -0.23130000       2.04370000      -0.79090000
H       -0.03040000       2.04410000       0.97110000
H       -0.90620000      -0.17090000       0.23700000
H       -0.58970000      -0.36630000      -2.62340000
H        0.42890000      -1.80060000      -2.78800000
H       -0.94900000      -1.82050000      -1.65970000
H        0.92000000      -2.62800000      -0.07230000
H        3.41200000      -2.28040000       0.41210000
H        3.03530000      -2.51950000      -1.30610000
H        2.89210000      -0.11290000      -1.27040000
