15
Properties=species:S:1:pos:R:3 pbc="F F F"
N       -0.19710000       1.15550000      -0.70540000
C       -0.10730000       0.01610000      -0.13000000
N       -1.19390000      -0.66570000       0.34780000
C       -2.49400000      -0.06400000       0.36730000
C       -3.35080000      -0.14840000      -0.86750000
C       -3.68280000      -0.98360000       0.34420000
C        1.15410000      -0.68740000       0.06110000
N        2.17580000      -1.21050000       0.20220000
H        0.71370000       1.47540000      -1.02510000
H       -1.01270000      -1.41980000       0.99140000
H       -2.56340000       0.85140000       0.95010000
H       -3.97500000       0.70520000      -1.10260000
H       -2.92720000      -0.65560000      -1.72570000
H       -3.49050000      -2.04960000       0.28460000
H       -4.54030000      -0.71490000       0.95010000
