14
Properties=species:S:1:pos:R:3 pbc="F F F"
O       -1.33730000      -0.37870000      -0.71480000
C       -1.38200000       0.70310000      -0.29850000
C       -1.44690000       1.93670000       0.17030000
C       -0.38730000       2.90200000       0.00580000
C       -0.19020000       4.17880000       0.39860000
C        1.22870000       4.25540000      -0.15170000
C        2.29370000       3.55040000       0.68270000
N        2.09690000       2.33300000       0.32410000
C        0.99470000       2.78670000      -0.62060000
H       -2.35460000       2.19040000       0.70850000
H       -0.77500000       4.87740000       0.98370000
H        1.51840000       5.07080000      -0.81540000
H        3.02450000       3.89520000       1.41380000
H        1.11550000       2.44590000      -1.64860000
