17
Properties=species:S:1:pos:R:3 pbc="F F F"
C        0.20580000       1.34000000      -0.31640000
C       -0.05510000      -0.13160000      -0.04050000
O        0.75740000      -0.98630000      -0.94400000
C        1.55710000      -1.41730000       0.08860000
N        2.62370000      -2.07750000       0.08400000
C        0.73630000      -0.74840000       1.18020000
N        1.35100000       0.13880000       2.13120000
C       -1.46170000      -0.48000000      -0.11810000
C       -2.62990000      -0.76080000      -0.15020000
H        1.27840000       1.54810000      -0.29310000
H       -0.18610000       1.61500000      -1.29850000
H       -0.28200000       1.95060000       0.44690000
H        2.90560000      -2.33090000      -0.86480000
H        0.10380000      -1.47190000       1.69840000
H        1.45450000      -0.31210000       3.03150000
H        2.27890000       0.41380000       1.82870000
H       -3.66170000      -1.01060000      -0.18860000
