19
Properties=species:S:1:pos:R:3 pbc="F F F"
O       -0.19330000       1.44800000       0.11340000
C        0.02620000       0.04550000       0.01490000
C        0.92080000      -0.45310000       1.17050000
C        1.41000000      -1.86860000       0.98770000
C        0.61810000      -2.93970000       0.93600000
C       -0.88960000      -2.88930000       1.06190000
C       -1.48710000      -2.07780000      -0.09180000
O       -2.03000000      -2.61800000      -1.02590000
C       -1.38690000      -0.56080000       0.00590000
H        0.65590000       1.89140000       0.01850000
H        0.52050000      -0.19890000      -0.93810000
H        1.78010000       0.22280000       1.24480000
H        0.36180000      -0.34170000       2.11030000
H        2.48090000      -2.00790000       0.86580000
H        1.05520000      -3.91860000       0.76280000
H       -1.31800000      -3.89170000       1.02160000
H       -1.17560000      -2.42540000       2.01540000
H       -1.87790000      -0.24360000       0.93650000
H       -1.94340000      -0.13520000      -0.83150000
