14
Properties=species:S:1:pos:R:3 pbc="F F F"
N        0.03720000      -1.11150000      -0.00580000
C        0.04050000       0.04270000       0.00170000
C       -0.00500000       1.50420000       0.01180000
O        1.33670000       1.98630000      -0.00040000
C        1.41900000       3.32990000       0.00690000
N        0.43510000       4.18600000       0.02370000
C        1.05860000       5.42610000       0.02410000
C        2.41430000       5.28760000       0.00730000
N        2.64200000       3.91590000      -0.00390000
H       -0.55420000       1.87250000      -0.86200000
H       -0.53390000       1.86080000       0.90290000
H        0.48180000       6.33730000       0.03650000
H        3.22460000       5.99620000       0.00210000
H        3.52710000       3.43850000      -0.01710000
