23
Properties=species:S:1:pos:R:3 pbc="F F F"
C        0.47040000       1.04290000       0.33670000
C        0.18560000      -0.42030000      -0.03570000
C       -1.28370000      -0.81890000       0.05360000
C       -2.20580000      -0.02460000      -0.85760000
C       -1.66610000      -2.24020000       0.35650000
C       -0.68490000      -3.37310000       0.57610000
N       -1.91420000      -1.17670000       1.33670000
C       -1.18140000      -1.14710000       2.59190000
H        1.54390000       1.24970000       0.28520000
H       -0.03100000       1.74090000      -0.33960000
H        0.13570000       1.26880000       1.35410000
H        0.52080000      -0.60050000      -1.06570000
H        0.80040000      -1.06820000       0.59280000
H       -1.88700000      -0.10260000      -1.90400000
H       -3.22920000      -0.39800000      -0.77750000
H       -2.22040000       1.03640000      -0.58830000
H       -2.59020000      -2.59120000      -0.10740000
H        0.26670000      -3.05800000       1.00670000
H       -1.11680000      -4.12670000       1.24440000
H       -0.46860000      -3.86870000      -0.37670000
H       -0.11200000      -1.39850000       2.53970000
H       -1.26650000      -0.14540000       3.02640000
H       -1.65230000      -1.84870000       3.28910000
