21
Properties=species:S:1:pos:R:3 pbc="F F F"
C        0.63450000       1.31800000       0.72540000
C        0.94130000      -0.14420000       0.39650000
C        0.52290000      -0.53250000      -1.04100000
C        1.35540000       0.14070000      -2.03870000
C        2.06280000       0.68970000      -2.84160000
C        0.49780000      -2.05110000      -1.30730000
C       -0.12040000      -2.45420000      -2.62770000
C        1.45270000      -2.95030000      -0.64660000
O        0.09540000      -2.85520000      -0.19280000
H        1.14860000       1.99510000       0.03640000
H       -0.43990000       1.52220000       0.65750000
H        0.95540000       1.56230000       1.74240000
H        2.01400000      -0.32790000       0.52060000
H        0.41380000      -0.81120000       1.08390000
H       -0.51360000      -0.18810000      -1.18120000
H        2.67870000       1.17740000      -3.55610000
H        0.43620000      -2.02290000      -3.46410000
H       -0.12940000      -3.54200000      -2.72820000
H       -1.15440000      -2.09700000      -2.68910000
H        1.71670000      -3.89180000      -1.12650000
H        2.20030000      -2.55810000       0.03890000
