17
Properties=species:S:1:pos:R:3 pbc="F F F"
C        0.21950000       1.57020000      -0.18670000
C        0.14740000       0.08410000       0.09960000
O        0.41000000      -0.39760000       1.17330000
C       -0.22520000      -0.82150000      -1.07410000
N       -0.71760000      -2.15590000      -0.72750000
C       -1.66500000      -2.15430000      -1.85450000
C       -1.52720000      -0.59980000      -1.92900000
C       -2.59360000       0.13880000      -1.27370000
N       -3.44070000       0.74320000      -0.76950000
H        0.75060000       2.07410000       0.62170000
H        0.71400000       1.76950000      -1.14390000
H       -0.79610000       1.97690000      -0.25380000
H        0.63750000      -0.80930000      -1.76570000
H       -0.03600000      -2.90320000      -0.68670000
H       -1.29870000      -2.61590000      -2.78230000
H       -2.65690000      -2.54900000      -1.61990000
H       -1.36610000      -0.18810000      -2.92600000
