15
Properties=species:S:1:pos:R:3 pbc="F F F"
O       -0.17370000       1.42520000       0.23350000
C       -0.02920000       0.03430000      -0.02030000
C       -1.39340000      -0.57650000       0.03460000
N       -1.67310000      -1.86370000       0.09790000
C       -3.03860000      -1.93730000       0.09360000
C       -3.60300000      -0.67670000       0.03170000
N       -2.51460000       0.18230000      -0.01150000
C       -4.93650000      -0.23190000       0.01660000
C       -6.07890000       0.15240000       0.00240000
H        0.66110000       1.85850000       0.03740000
H        0.41630000      -0.14700000      -1.01080000
H        0.61350000      -0.46040000       0.72130000
H       -3.56010000      -2.88080000       0.13890000
H       -2.53050000       1.18900000      -0.02920000
H       -7.08760000       0.48310000      -0.00850000
