20
Properties=species:S:1:pos:R:3 pbc="F F F"
C        0.18620000       1.46990000      -0.41980000
C        0.01430000       0.04510000       0.06090000
O        0.69510000      -0.93240000      -0.78010000
C        1.29910000      -1.56890000       0.35820000
C        2.74800000      -1.07700000       0.60750000
C        2.16880000      -0.02560000       1.57600000
C        2.76330000       0.37700000       2.87040000
N        2.58740000       1.35900000       1.78240000
C        0.72950000      -0.48860000       1.32580000
H        1.23760000       1.75840000      -0.45670000
H       -0.24410000       1.57350000      -1.42140000
H       -0.33320000       2.16200000       0.25090000
H       -1.05640000      -0.20420000       0.10080000
H        1.09070000      -2.63990000       0.41230000
H        3.41320000      -1.80630000       1.08010000
H        3.21850000      -0.68840000      -0.30000000
H        2.12880000       0.54120000       3.73810000
H        3.76540000       0.02280000       3.10150000
H        3.47580000       1.52590000       1.31490000
H        0.11030000      -0.69100000       2.19940000
