17
Properties=species:S:1:pos:R:3 pbc="F F F"
C       -0.16980000       1.54550000      -0.06070000
C        0.02060000       0.04100000       0.03640000
O        0.80160000      -0.43350000      -1.08630000
C        1.91670000      -1.20200000      -0.56280000
C        2.84860000      -0.29700000       0.19680000
C        2.18230000       0.11870000       1.29190000
C        0.80280000      -0.49120000       1.27730000
C        1.22540000      -1.85940000       0.65640000
O        1.06270000      -2.98580000       1.00630000
H        0.78770000       2.06780000       0.00780000
H       -0.62760000       1.79740000      -1.02170000
H       -0.82930000       1.90210000       0.73770000
H       -0.95860000      -0.45830000       0.00820000
H        2.31080000      -1.83900000      -1.34970000
H        3.85720000      -0.04110000      -0.09890000
H        2.54900000       0.77870000       2.06740000
H        0.24100000      -0.51700000       2.20800000
