21
Properties=species:S:1:pos:R:3 pbc="F F F"
C        0.00450000       1.59800000       0.00420000
C        0.04490000       0.06540000      -0.02030000
C       -1.36800000      -0.51120000      -0.14430000
O        0.81550000      -0.30250000      -1.18120000
C        1.82890000      -1.23100000      -0.83850000
C        2.18610000      -0.91220000       0.61380000
C        0.80230000      -0.58510000       1.19900000
C        0.85690000       0.28530000       2.43150000
O        0.21890000       0.09080000       3.43470000
H        1.00690000       2.02280000       0.10570000
H       -0.41300000       1.95630000      -0.94070000
H       -0.62220000       1.97280000       0.81970000
H       -1.88170000      -0.07710000      -1.00700000
H       -1.32960000      -1.59640000      -0.27790000
H       -1.95480000      -0.29700000       0.75500000
H        1.46770000      -2.26840000      -0.92880000
H        2.66110000      -1.10030000      -1.53680000
H        2.68320000      -1.73610000       1.13150000
H        2.84130000      -0.03420000       0.65920000
H        0.28250000      -1.50450000       1.48340000
H        1.55450000       1.15110000       2.35850000
