16
Properties=species:S:1:pos:R:3 pbc="F F F"
C        0.11470000       1.54540000       0.00020000
N        0.02190000       0.11480000       0.22300000
C       -1.22220000      -0.51960000       0.70860000
C       -0.34150000      -1.53770000       1.49400000
C        0.81270000      -0.51420000       1.29730000
C        2.12670000      -1.01240000       0.89420000
N        3.16570000      -1.41150000       0.58400000
C       -2.04770000       0.32330000       1.58760000
N       -2.67360000       1.01720000       2.26860000
H        1.13670000       1.78470000      -0.30730000
H       -0.55790000       1.82940000      -0.81430000
H       -0.13970000       2.14450000       0.88900000
H       -1.85460000      -0.92130000      -0.08890000
H       -0.63010000      -1.75500000       2.51990000
H       -0.18680000      -2.45740000       0.93240000
H        0.93630000       0.12540000       2.18550000
