16
Properties=species:S:1:pos:R:3 pbc="F F F"
O        0.14490000      -0.11730000      -0.01060000
C        0.06870000       1.07150000      -0.18210000
C        1.22750000       2.03800000       0.00530000
C        1.34440000       2.99620000      -1.14370000
C        1.99680000       2.74600000      -2.46960000
C        2.41500000       3.94520000      -1.63710000
C        1.29630000       4.97870000      -1.67380000
O        0.30950000       3.98260000      -1.28440000
H       -0.88480000       1.55250000      -0.49140000
H        1.04110000       2.60790000       0.92670000
H        2.14700000       1.46090000       0.13360000
H        2.72220000       1.93860000      -2.49120000
H        1.42640000       2.88020000      -3.38490000
H        3.42850000       4.10850000      -1.29690000
H        1.38100000       5.75290000      -0.90320000
H        1.06180000       5.44070000      -2.63990000
