13
Properties=species:S:1:pos:R:3 pbc="F F F"
O       -0.03170000      -0.06740000      -0.03160000
C       -0.00430000       1.13040000       0.01410000
C        1.27850000       1.95150000       0.00520000
C        1.32230000       2.95520000      -1.16420000
O        1.24570000       2.68880000      -2.33610000
C        1.46490000       4.31990000      -0.57980000
C        1.50760000       4.26790000       0.75890000
C        1.39890000       2.86180000       1.24370000
O        1.39630000       2.50520000       2.39390000
H       -0.93510000       1.73550000       0.06730000
H        2.12000000       1.25520000      -0.04860000
H        1.52090000       5.19960000      -1.20920000
H        1.60550000       5.09640000       1.44970000
