18
Properties=species:S:1:pos:R:3 pbc="F F F"
C       -0.03430000       1.63250000      -0.21950000
C        0.10340000       0.12600000      -0.02890000
C       -1.20180000      -0.52890000       0.40980000
C        0.77330000      -0.58980000      -1.24460000
N        2.04140000      -1.12870000      -0.74170000
C        2.09270000      -0.79800000       0.48920000
O        1.08870000      -0.09480000       1.04030000
C        3.25170000      -1.17320000       1.35160000
O        3.34990000      -0.88750000       2.51590000
H        0.92780000       2.07640000      -0.49090000
H       -0.74980000       1.84670000      -1.02020000
H       -0.38930000       2.11010000       0.69780000
H       -1.96510000      -0.40290000      -0.36490000
H       -1.05790000      -1.59980000       0.57920000
H       -1.57130000      -0.07880000       1.33530000
H        0.15690000      -1.40580000      -1.63890000
H        0.96900000       0.09680000      -2.07620000
H        4.01640000      -1.74850000       0.79470000
