20
Properties=species:S:1:pos:R:3 pbc="F F F"
C       -0.21990000       1.50530000      -0.17160000
N        0.04800000       0.08980000       0.04140000
C        1.37160000      -0.51710000      -0.14900000
C        2.56790000       0.38130000      -0.09530000
C        2.68620000       0.95630000       1.10160000
C        1.63290000       0.46160000       2.08760000
C        2.25770000      -0.36550000       3.21700000
O        0.84740000       1.52380000       2.63790000
C        0.73400000      -0.42690000       1.20850000
H        0.60680000       2.17910000       0.08010000
H       -0.48580000       1.64530000      -1.22480000
H       -1.07900000       1.78550000       0.44300000
H        1.38930000      -1.42070000      -0.75190000
H        3.20380000       0.56910000      -0.95340000
H        3.41550000       1.71120000       1.38080000
H        2.96540000       0.24110000       3.79470000
H        1.47520000      -0.72170000       3.89490000
H        2.80360000      -1.22680000       2.82090000
H        1.41690000       2.04230000       3.21670000
H        0.25490000      -1.27310000       1.69510000
