19
Properties=species:S:1:pos:R:3 pbc="F F F"
C       -0.10380000       1.45500000      -0.01900000
C        1.48270000       1.63960000       0.01300000
C        2.27180000       1.57720000       1.35590000
C        2.48460000       0.08320000       1.61240000
C        2.11030000      -0.66390000       0.56950000
C        1.27170000      -1.94500000       0.49380000
C       -0.08850000      -1.22620000       0.26620000
C        0.14230000      -0.02870000      -0.28740000
C        1.61380000       0.20330000      -0.55520000
H       -0.67860000       1.69180000       0.88170000
H       -0.52470000       2.01650000      -0.85940000
H        1.81240000       2.46550000      -0.61900000
H        3.20470000       2.15380000       1.28500000
H        1.71070000       2.01890000       2.19040000
H        2.68780000      -0.29590000       2.60900000
H        1.56790000      -2.61850000      -0.31970000
H        1.26210000      -2.52320000       1.42220000
H       -0.99230000      -1.54850000       0.77160000
H        2.01800000       0.03990000      -1.55700000
