21
Properties=species:S:1:pos:R:3 pbc="F F F"
C       -0.01010000       1.51150000       0.06430000
C       -0.08030000       0.02360000      -0.01490000
C       -0.07810000      -0.78660000      -1.08160000
C        0.01190000      -2.22840000      -0.59300000
C       -0.33350000      -3.32990000      -1.57700000
C        1.42880000      -2.32940000       0.06070000
O        1.36620000      -1.45760000       1.19390000
C        0.01450000      -0.90970000       1.19080000
C       -0.81320000      -2.10940000       0.72110000
H        0.91560000       1.83030000       0.56020000
H       -0.03780000       1.96990000      -0.92850000
H       -0.83890000       1.92390000       0.65360000
H       -0.01830000      -0.49580000      -2.12480000
H        0.34450000      -3.32130000      -2.43820000
H       -0.26090000      -4.31700000      -1.10760000
H       -1.35320000      -3.21210000      -1.95770000
H        1.64060000      -3.35360000       0.39750000
H        2.22510000      -2.01030000      -0.62250000
H       -0.17250000      -0.48400000       2.17640000
H       -1.86360000      -1.87710000       0.53640000
H       -0.72240000      -2.97630000       1.38350000
