13
Properties=species:S:1:pos:R:3 pbc="F F F"
C       -0.02190000       1.48180000       0.02270000
C        0.00200000       0.02930000       0.00210000
C        0.03210000      -1.17300000      -0.02190000
C        0.02280000      -2.63920000      -0.03120000
O       -1.27620000      -3.18270000      -0.18730000
C        0.82300000      -3.14410000      -1.17560000
N        1.45860000      -3.51590000      -2.06340000
C        0.64030000      -3.13910000       1.23310000
N        1.07280000      -3.51660000       2.23480000
H        0.77740000       1.88880000      -0.60490000
H       -0.97580000       1.86180000      -0.35670000
H        0.11710000       1.86150000       1.03990000
H       -1.85830000      -2.71450000       0.42480000
