18
Properties=species:S:1:pos:R:3 pbc="F F F"
C        0.11790000       1.35260000       0.38020000
C        0.05140000      -0.13890000       0.10180000
O        1.04580000      -0.82580000       0.07180000
C       -1.35140000      -0.72510000      -0.13290000
C       -1.32570000      -2.18880000      -0.63910000
C       -1.64390000      -3.07460000       0.59450000
C       -2.22840000      -2.09790000       1.58410000
C       -2.08980000      -0.83250000       1.19370000
H        1.14000000       1.63970000       0.62990000
H       -0.21040000       1.90850000      -0.50600000
H       -0.55670000       1.63050000       1.19650000
H       -1.87650000      -0.05060000      -0.82260000
H       -2.09960000      -2.31960000      -1.40030000
H       -0.36120000      -2.43190000      -1.08620000
H       -2.33450000      -3.89080000       0.35370000
H       -0.74080000      -3.54530000       1.00420000
H       -2.69040000      -2.41070000       2.51440000
H       -2.41790000       0.03750000       1.75130000
