18
Properties=species:S:1:pos:R:3 pbc="F F F"
C        0.10290000       1.41900000       0.45380000
C       -0.11750000      -0.03780000       0.11920000
C        0.31230000      -0.67690000      -1.18560000
C        1.00930000       0.09000000      -2.29570000
C        1.83080000      -0.83580000      -3.17580000
O        3.00510000      -0.70210000      -3.39650000
N        0.98340000      -0.97490000       0.06390000
C        2.29580000      -0.76470000       0.43250000
O        2.64120000      -0.20500000       1.44620000
H        0.96410000       1.84360000      -0.06480000
H       -0.78600000       1.99960000       0.18720000
H        0.28210000       1.53030000       1.52610000
H       -1.01560000      -0.46050000       0.56960000
H       -0.31200000      -1.49350000      -1.55130000
H        0.23910000       0.55050000      -2.93140000
H        1.66400000       0.87650000      -1.91590000
H        1.25380000      -1.68080000      -3.61880000
H        3.00530000      -1.23640000      -0.27370000
