25
Properties=species:S:1:pos:R:3 pbc="F F F"
C        0.12930000       1.58800000      -0.10560000
C        0.23360000       0.06020000      -0.11200000
C        0.44150000      -0.52390000       1.29400000
C        0.63470000      -2.03620000       1.32430000
C       -0.55670000      -2.83810000       0.82530000
C        2.01180000      -2.59310000       1.03470000
C        1.44480000      -2.68450000       2.43210000
C        2.07200000      -1.93710000       3.57970000
O        3.12450000      -2.74670000       4.09480000
H        1.03740000       2.04600000       0.30270000
H       -0.01700000       1.98310000      -1.11580000
H       -0.71330000       1.92570000       0.50840000
H       -0.67310000      -0.36080000      -0.56160000
H        1.06670000      -0.25140000      -0.75500000
H        1.31090000      -0.02940000       1.74120000
H       -0.41860000      -0.25440000       1.92420000
H       -0.77510000      -2.62960000      -0.22730000
H       -0.37170000      -3.91300000       0.91360000
H       -1.45910000      -2.60670000       1.40450000
H        2.09960000      -3.50110000       0.44710000
H        2.82010000      -1.88510000       0.87600000
H        1.09650000      -3.66910000       2.73510000
H        2.45840000      -0.96240000       3.24740000
H        1.31570000      -1.73990000       4.35750000
H        3.48410000      -2.30600000       4.87050000
