19
Properties=species:S:1:pos:R:3 pbc="F F F"
C       -0.07080000       1.51390000      -0.00110000
C       -0.02550000       0.01710000      -0.00120000
C        0.00300000      -0.80200000      -1.08530000
O        0.06080000      -2.10900000      -0.71260000
C        0.07030000      -2.12100000       0.64580000
C        0.01910000      -0.85880000       1.15000000
C       -0.00370000      -0.46300000       2.59600000
C       -1.41220000      -0.15030000       3.10740000
O       -1.29810000       0.24080000       4.46640000
H        0.76640000       1.94130000       0.56290000
H       -0.01940000       1.90840000      -1.01980000
H       -0.99090000       1.89680000       0.45560000
H       -0.00420000      -0.61610000      -2.14720000
H        0.12580000      -3.09410000       1.10690000
H        0.41420000      -1.26260000       3.21680000
H        0.62160000       0.42190000       2.76310000
H       -1.86380000       0.64810000       2.49710000
H       -2.04610000      -1.04360000       2.99400000
H       -2.17990000       0.42550000       4.80210000
