20
Properties=species:S:1:pos:R:3 pbc="F F F"
C        0.04320000       0.88950000      -0.02610000
N       -0.14410000      -0.54510000      -0.02720000
C       -1.33960000      -0.98080000      -0.15720000
N       -2.46850000      -0.22760000      -0.31440000
N       -1.52440000      -2.40360000      -0.20410000
C       -0.29950000      -3.20850000      -0.28640000
C       -2.75050000      -3.02860000      -0.07630000
C       -2.74180000      -4.54800000      -0.07200000
O       -3.81890000      -2.43680000       0.02950000
H        1.10970000       1.11520000       0.05390000
H       -0.33180000       1.36840000      -0.94520000
H       -0.45480000       1.38530000       0.82550000
H       -2.39780000       0.73260000      -0.02230000
H       -3.34890000      -0.71160000      -0.16940000
H       -0.05960000      -3.67590000       0.67420000
H       -0.40340000      -3.98460000      -1.04640000
H        0.51170000      -2.53540000      -0.54950000
H       -2.07460000      -4.95670000       0.69150000
H       -3.76290000      -4.87400000       0.12120000
H       -2.41760000      -4.94650000      -1.03860000
