21
Properties=species:S:1:pos:R:3 pbc="F F F"
C       -0.15040000       1.33710000       0.15360000
C        0.02540000      -0.16140000       0.01290000
C        0.74730000      -0.65730000      -1.20770000
C        1.42100000      -0.69880000       0.17750000
C        1.47970000      -2.23530000       0.09220000
O        0.71050000      -3.02550000       0.97540000
C       -0.56300000      -3.32710000       0.40250000
C       -0.49620000      -3.03370000      -1.12100000
C        0.78050000      -2.19550000      -1.29430000
H        0.71150000       1.87610000      -0.25410000
H       -1.04210000       1.68310000      -0.38030000
H       -0.25580000       1.62510000       1.20500000
H       -0.80960000      -0.73380000       0.40620000
H        0.96270000       0.00530000      -2.03810000
H        2.21570000      -0.07200000       0.56630000
H        2.50650000      -2.61210000       0.09860000
H       -0.78100000      -4.38040000       0.61260000
H       -1.34510000      -2.72920000       0.88980000
H       -0.41570000      -3.96680000      -1.68510000
H       -1.39400000      -2.51510000      -1.46760000
H        1.40530000      -2.54940000      -2.11540000
