15
Properties=species:S:1:pos:R:3 pbc="F F F"
C       -0.06290000       1.54150000      -0.00120000
C       -0.05320000       0.01360000      -0.01090000
C       -1.33720000      -0.56890000      -0.35950000
C       -2.39890000      -1.05370000      -0.64780000
C        1.22330000      -0.66020000      -0.63660000
O        2.00390000      -0.20380000       0.53840000
C        0.74230000      -0.67460000       1.15890000
C        0.94410000      -1.91340000       0.24080000
O        1.03830000      -3.09260000       0.25650000
H        0.92290000       1.92460000       0.26600000
H       -0.34170000       1.92250000      -0.98750000
H       -0.79890000       1.90880000       0.71920000
H       -3.33430000      -1.48890000      -0.90130000
H        1.65910000      -0.52510000      -1.62440000
H        0.62550000      -0.55610000       2.23420000
