21
Properties=species:S:1:pos:R:3 pbc="F F F"
C       -0.19100000       1.69680000       0.04450000
C       -0.04640000       0.19580000       0.28970000
C        0.40410000      -0.61860000      -0.95280000
C        1.33830000      -1.75770000      -0.41730000
C        1.19570000      -1.68040000       1.12790000
C        0.96370000      -0.18860000       1.38510000
O        2.15330000       0.56780000       1.16680000
C        1.05750000      -3.07520000      -0.96630000
C        0.81180000      -4.16570000      -1.41070000
H        0.76750000       2.13460000      -0.24450000
H       -0.91460000       1.89110000      -0.75390000
H       -0.54000000       2.21480000       0.94430000
H       -1.01450000      -0.19860000       0.62380000
H       -0.45200000      -1.03270000      -1.48970000
H        0.95320000       0.01290000      -1.65630000
H        2.37070000      -1.49100000      -0.66530000
H        0.32320000      -2.25510000       1.45700000
H        2.07060000      -2.07980000       1.65080000
H        0.56700000       0.00700000       2.39220000
H        2.81350000       0.27380000       1.80190000
H        0.60100000      -5.12630000      -1.81010000
