17
Properties=species:S:1:pos:R:3 pbc="F F F"
C       -0.07110000       1.50690000       0.06120000
C        0.13080000       0.01780000       0.02110000
O       -0.73190000      -0.77200000       0.85210000
C        0.69610000      -0.81130000       1.10540000
C        1.37630000      -1.97330000       0.46700000
C        1.23660000      -1.91810000      -0.86020000
C        0.46610000      -0.68610000      -1.30930000
C       -0.79560000      -1.07280000      -2.07520000
O       -0.93850000      -0.92360000      -3.26090000
H        0.81060000       2.02930000      -0.32370000
H       -0.92940000       1.80020000      -0.55320000
H       -0.25800000       1.83740000       1.08570000
H        0.99700000      -0.41350000       2.06980000
H        1.89270000      -2.74710000       1.02100000
H        1.58520000      -2.65950000      -1.56980000
H        1.06610000      -0.05190000      -1.97140000
H       -1.58320000      -1.52250000      -1.43660000
