22
Properties=species:S:1:pos:R:3 pbc="F F F"
C        0.07600000       1.43030000      -0.24100000
C        0.00950000      -0.08220000       0.01110000
C        0.82000000      -0.46800000       1.25600000
C       -1.43780000      -0.55940000       0.12630000
C       -2.34890000      -0.44790000      -1.14620000
C       -2.75080000      -1.88640000      -0.90650000
C       -1.70150000      -2.10320000       0.16260000
N       -3.70840000      -2.55600000      -1.39340000
O       -3.74690000      -3.85220000      -0.83840000
H        1.11130000       1.76390000      -0.36550000
H       -0.47710000       1.71570000      -1.14150000
H       -0.35160000       1.98510000       0.60280000
H        0.45520000      -0.59220000      -0.85670000
H        0.79980000      -1.54800000       1.43310000
H        1.86730000      -0.16550000       1.15360000
H        0.41870000       0.02420000       2.15010000
H       -1.91660000      -0.07030000       0.98220000
H       -3.15020000       0.29470000      -1.13490000
H       -1.76890000      -0.31770000      -2.06760000
H       -0.85140000      -2.69730000      -0.19330000
H       -2.05580000      -2.54210000       1.09840000
H       -4.51660000      -4.23350000      -1.27360000
