21
Properties=species:S:1:pos:R:3 pbc="F F F"
C        0.26350000       1.56900000      -0.00070000
C        0.11280000       0.06660000       0.08410000
O        0.96450000      -0.66460000      -0.84010000
C        1.38230000      -1.58730000       0.19190000
C        2.87400000      -1.53080000       0.47470000
C        3.00060000      -0.20030000       1.23070000
O        1.77740000      -0.04190000       1.95440000
C        0.71660000      -0.71560000       1.28710000
C       -0.22430000      -1.29540000       2.32050000
H        1.26750000       1.89100000       0.28190000
H        0.05770000       1.90690000      -1.02130000
H       -0.45280000       2.05620000       0.66940000
H       -0.93740000      -0.21610000      -0.08380000
H        0.98500000      -2.59440000       0.02680000
H        3.15910000      -2.37530000       1.11150000
H        3.47210000      -1.56310000      -0.43920000
H        3.81860000      -0.18120000       1.95610000
H        3.14380000       0.62830000       0.52500000
H       -0.64150000      -0.49760000       2.94360000
H       -1.05200000      -1.82760000       1.84340000
H        0.30790000      -1.98950000       2.97770000
