17
Properties=species:S:1:pos:R:3 pbc="F F F"
O        0.04820000      -0.12310000      -0.17730000
C        0.04700000       1.06040000       0.03760000
C        1.25520000       1.95450000      -0.05960000
C        0.97950000       3.31130000      -0.75140000
O        1.13250000       4.02890000       0.48830000
C        1.51750000       2.84190000       1.18940000
C        0.92180000       2.59820000       2.58980000
O        2.23470000       2.50350000       3.17390000
C        2.87140000       2.84080000       1.92570000
H       -0.88940000       1.59360000       0.32690000
H        2.11190000       1.38310000      -0.41790000
H        1.72780000       3.60190000      -1.49670000
H       -0.02290000       3.43960000      -1.17690000
H        0.35300000       3.46010000       2.96130000
H        0.33830000       1.68120000       2.73580000
H        3.60350000       2.08560000       1.61550000
H        3.34270000       3.83160000       1.94500000
