21
Properties=species:S:1:pos:R:3 pbc="F F F"
C       -0.06770000       1.58790000       0.03050000
C        0.12830000       0.07320000      -0.05430000
C        0.63790000      -0.53680000       1.25860000
O       -0.22380000      -0.24720000       2.35020000
C        0.83710000      -2.05460000       1.15100000
C        1.50810000      -2.70610000       2.36620000
O        0.88900000      -3.98600000       2.42480000
C       -0.44120000      -3.76300000       2.05340000
O       -0.45350000      -2.68610000       1.12050000
H        0.88210000       2.09930000       0.22460000
H       -0.47660000       1.98660000      -0.90250000
H       -0.75190000       1.84070000       0.84440000
H       -0.81640000      -0.41910000      -0.31880000
H        0.83920000      -0.17370000      -0.85350000
H        1.60390000      -0.08010000       1.51510000
H       -1.00590000      -0.79660000       2.20660000
H        1.37760000      -2.30280000       0.22750000
H        2.58340000      -2.85150000       2.24970000
H        1.30450000      -2.12150000       3.27410000
H       -0.83330000      -4.67190000       1.58400000
H       -1.06270000      -3.48890000       2.92370000
