18
Properties=species:S:1:pos:R:3 pbc="F F F"
C       -0.13030000       1.55520000       0.05530000
C        0.03860000       0.04700000      -0.03600000
C        0.86800000      -0.52630000      -1.21000000
C        2.30550000      -0.11310000      -0.81580000
C        2.22180000      -0.59380000       0.63450000
C        1.34510000      -1.81410000       0.67300000
N        0.83800000      -0.48740000       1.11930000
C        0.89480000      -2.00040000      -0.75260000
O        0.63580000      -3.00610000      -1.35420000
H        0.82680000       2.08270000       0.03110000
H       -0.74500000       1.92270000      -0.77230000
H       -0.62770000       1.81340000       0.99490000
H       -0.94910000      -0.42760000       0.00150000
H        0.53370000      -0.35040000      -2.22840000
H        3.06590000      -0.64870000      -1.39160000
H        2.49890000       0.95890000      -0.90110000
H        3.01380000      -0.43750000       1.35670000
H        1.42430000      -2.61740000       1.39290000
