14
Properties=species:S:1:pos:R:3 pbc="F F F"
C        0.00310000       1.40750000       0.00870000
O       -0.02430000      -0.02080000       0.00490000
C       -1.23040000      -0.60890000       0.01220000
C       -1.26140000      -2.01910000       0.00820000
N       -2.40490000      -2.68060000       0.01480000
C       -3.53080000      -1.94720000       0.02540000
C       -3.49050000      -0.56360000       0.02920000
N       -2.33550000       0.11830000       0.02260000
H        1.05950000       1.67780000       0.00130000
H       -0.50000000       1.81220000      -0.87400000
H       -0.48620000       1.80720000       0.90140000
H       -0.33290000      -2.58300000      -0.00040000
H       -4.47380000      -2.48460000       0.03080000
H       -4.40400000       0.02530000       0.03770000
