13
Properties=species:S:1:pos:R:3 pbc="F F F"
N        0.82030000       0.14670000       0.73800000
C       -0.17670000       0.22730000      -0.17430000
O       -0.26810000       1.07780000      -1.02900000
C       -1.29190000      -0.86670000      -0.02390000
C       -0.80460000      -2.13600000       0.51800000
C       -0.37530000      -3.16600000       0.96400000
C       -2.38840000      -0.31770000       0.77760000
C       -3.27870000       0.14610000       1.43550000
H        1.57180000       0.81420000       0.68420000
H        0.89930000      -0.64340000       1.35570000
H       -1.64590000      -1.02110000      -1.05030000
H       -0.01380000      -4.08800000       1.34880000
H       -4.07020000       0.55540000       2.01340000
