16
Properties=species:S:1:pos:R:3 pbc="F F F"
O       -0.85980000       1.28950000       0.13690000
C        0.28370000       0.98980000      -0.08910000
C        1.47410000       1.94370000      -0.19430000
O        2.57050000       1.45310000      -0.43260000
N        1.26880000       3.26780000      -0.02290000
C        0.01100000       3.97820000       0.26610000
C        0.47020000       5.40900000       0.33590000
C        1.77720000       5.52080000       0.12350000
C        2.41320000       4.18360000      -0.12410000
H        0.61750000      -0.05490000      -0.25410000
H       -0.73700000       3.81090000      -0.51800000
H       -0.44240000       3.63240000       1.20270000
H       -0.22060000       6.21750000       0.53810000
H        2.35040000       6.43870000       0.12050000
H        3.18550000       3.92220000       0.61210000
H        2.89030000       4.10090000      -1.11020000
