19
Properties=species:S:1:pos:R:3 pbc="F F F"
C       -0.01730000       1.52760000      -0.01730000
C       -0.00970000       0.07220000       0.02660000
C       -0.00050000      -1.13270000       0.06370000
C        0.01010000      -2.58580000       0.10650000
C        0.15920000      -3.34180000       1.43550000
C       -1.24080000      -3.50760000       2.04330000
C       -2.23720000      -2.85070000       1.09000000
C       -1.33110000      -3.38530000      -0.05010000
C       -0.75150000      -4.44920000       0.96830000
H        0.83710000       1.91490000      -0.58360000
H       -0.92800000       1.90710000      -0.49420000
H        0.03090000       1.95770000       0.98950000
H        0.74100000      -2.98120000      -0.60760000
H        1.04930000      -3.42030000       2.04630000
H       -1.35790000      -3.71290000       3.09970000
H       -3.19900000      -3.37070000       1.10730000
H       -2.39310000      -1.76830000       1.14170000
H       -1.72880000      -3.58030000      -1.04350000
H       -0.62570000      -5.52110000       0.93360000
