19
Properties=species:S:1:pos:R:3 pbc="F F F"
C       -0.01610000       1.51860000       0.01060000
C       -0.03430000      -0.02180000       0.00260000
C        0.71780000      -0.55800000      -1.24200000
O        0.88810000      -1.96090000      -1.18000000
C        1.57400000      -2.34130000      -0.01710000
O        0.89880000      -1.97320000       1.15610000
C        0.72930000      -0.57110000       1.23440000
C       -1.41490000      -0.50720000       0.00640000
C       -2.56190000      -0.86620000       0.00980000
H        1.01280000       1.89350000       0.00790000
H       -0.53150000       1.91530000      -0.86850000
H       -0.52330000       1.90590000       0.89870000
H        0.16300000      -0.34380000      -2.15810000
H        1.70010000      -0.05740000      -1.29840000
H        1.63880000      -3.43060000      -0.02320000
H        2.58810000      -1.89360000      -0.01940000
H        1.71200000      -0.07100000       1.28700000
H        0.18290000      -0.36660000       2.15790000
H       -3.56870000      -1.20320000       0.01240000
