23
Properties=species:S:1:pos:R:3 pbc="F F F"
C       -0.09790000       1.59980000      -0.01730000
C       -0.01690000       0.07540000       0.00280000
C        1.06730000      -0.59120000      -0.89530000
C        2.07860000      -0.27690000       0.26000000
C        0.81680000      -0.59230000       1.14950000
C        0.70210000      -0.16010000       2.59430000
C        0.68870000      -2.10690000       0.84480000
C       -0.39820000      -2.64350000      -0.05640000
C        0.87460000      -2.10430000      -0.66270000
H        0.86780000       2.09930000       0.09270000
H       -0.53560000       1.93940000      -0.96270000
H       -0.74780000       1.95940000       0.78830000
H       -1.03590000      -0.29740000      -0.12000000
H        1.23540000      -0.25590000      -1.92010000
H        2.93650000      -0.94800000       0.36400000
H        2.41520000       0.76040000       0.30560000
H        0.84960000       0.91910000       2.70610000
H       -0.28390000      -0.40850000       3.00390000
H        1.45210000      -0.66300000       3.21630000
H        1.22280000      -2.79320000       1.49420000
H       -0.48240000      -3.72660000      -0.06880000
H       -1.35440000      -2.14870000      -0.17430000
H        1.55370000      -2.78760000      -1.16080000
