17
Properties=species:S:1:pos:R:3 pbc="F F F"
O       -0.13300000       1.50700000       0.11940000
C       -0.08250000       0.11440000       0.19990000
C       -0.85840000      -0.62220000       1.28870000
C       -1.34010000      -0.60570000      -0.12890000
C       -2.61310000      -0.03030000      -0.73240000
C       -2.56750000      -1.29850000      -1.60950000
O       -1.36320000      -1.77420000      -0.95760000
C       -3.69170000      -2.29980000      -1.44030000
O       -4.84670000      -1.99920000      -1.28720000
H        0.38590000       1.86980000       0.84520000
H        0.84680000      -0.35080000      -0.13030000
H       -0.42790000      -1.54160000       1.67180000
H       -1.41520000      -0.02890000       2.00760000
H       -3.48240000       0.02220000      -0.07550000
H       -2.48340000       0.91650000      -1.25560000
H       -2.40320000      -1.12740000      -2.68340000
H       -3.34880000      -3.35850000      -1.46270000
