19
Properties=species:S:1:pos:R:3 pbc="F F F"
C        0.00420000       1.41860000       0.11560000
O       -0.08720000       0.01080000      -0.04750000
C        0.58640000      -0.50900000      -1.16100000
C        2.14430000      -0.59240000      -1.03470000
N        2.00260000      -1.98010000      -0.56820000
C        2.96280000      -2.96160000      -1.01870000
C        0.62270000      -2.05840000      -1.07460000
C        0.08130000       0.05980000      -2.41940000
N       -0.31400000       0.51790000      -3.40450000
H        1.04460000       1.74870000       0.23590000
H       -0.44280000       1.95280000      -0.73270000
H       -0.55060000       1.65720000       1.02440000
H        2.63810000      -0.49360000      -2.01350000
H        2.61110000       0.09380000      -0.32070000
H        3.95150000      -2.72410000      -0.61290000
H        2.67950000      -3.95230000      -0.64900000
H        3.04710000      -3.01620000      -2.12100000
H       -0.10880000      -2.48780000      -0.38410000
H        0.53010000      -2.53100000      -2.06380000
