18
Properties=species:S:1:pos:R:3 pbc="F F F"
C        0.00330000       1.41650000      -0.04530000
O       -0.01390000       0.01020000       0.04230000
C        0.58890000      -0.59790000      -1.08070000
C        0.55060000      -2.04770000      -0.95140000
C        0.52640000      -3.24990000      -0.85840000
C        0.53540000      -4.67270000      -0.82020000
C        1.15470000      -5.43390000      -1.96810000
N        0.00440000      -5.23290000       0.21120000
O        0.08360000      -6.62340000       0.11460000
H        1.03050000       1.81150000      -0.09710000
H       -0.54860000       1.77910000      -0.92720000
H       -0.47850000       1.80060000       0.85620000
H        0.07170000      -0.29550000      -2.00930000
H        1.63670000      -0.26340000      -1.18670000
H        1.96780000      -6.06840000      -1.60180000
H        0.41300000      -6.09980000      -2.41990000
H        1.53980000      -4.75220000      -2.72620000
H       -0.34030000      -6.90730000       0.93160000
