12
Properties=species:S:1:pos:R:3 pbc="F F F"
O       -0.11790000       0.03080000       0.40510000
C        0.00000000       1.17800000       0.03760000
C        1.24210000       1.90100000       0.00520000
C        2.27260000       2.53450000      -0.03940000
C        3.49480000       3.27380000      -0.06120000
C        3.79330000       4.15380000      -1.23960000
N        3.46640000       4.75540000       0.04760000
H       -0.87320000       1.76700000      -0.31070000
H        4.33050000       2.81820000       0.46200000
H        4.82860000       4.25860000      -1.54990000
H        3.06210000       4.18030000      -2.04180000
H        2.49880000       5.06990000       0.05010000
