15
Properties=species:S:1:pos:R:3 pbc="F F F"
C        0.85940000       1.47230000       0.35950000
C        0.97250000       0.31080000      -0.57840000
C       -0.26990000       0.46100000       0.28060000
C       -0.47420000      -0.46470000       1.40240000
N        0.46230000      -0.99970000       2.17270000
C       -0.25220000      -1.76710000       3.04090000
N       -1.56200000      -1.75120000       2.86890000
N       -1.68410000      -0.90700000       1.81050000
H        1.45750000       1.44800000       1.26260000
H        0.67380000       2.45880000      -0.04980000
H        0.86590000       0.48600000      -1.64290000
H        1.64630000      -0.49200000      -0.30390000
H       -1.17970000       0.77660000      -0.21980000
H        0.20750000      -2.35490000       3.82150000
H       -2.59690000      -0.69500000       1.44280000
