25
Properties=species:S:1:pos:R:3 pbc="F F F"
C       -0.22350000       1.58820000      -0.01170000
C       -0.04390000       0.07440000       0.08610000
C        0.61490000      -0.57480000      -1.15070000
C        1.16210000      -1.91920000      -0.64790000
C        0.97210000      -3.19040000      -1.43450000
C        2.34240000      -2.56610000      -1.32910000
C        1.02370000      -1.92680000       0.88280000
C        0.80940000      -0.44800000       1.27310000
C        2.13890000       0.29480000       1.46600000
H        0.73140000       2.09830000      -0.17580000
H       -0.88220000       1.84980000      -0.84700000
H       -0.67000000       1.99820000       0.90110000
H       -1.03930000      -0.37670000       0.20310000
H       -0.09240000      -0.68850000      -1.97890000
H        1.42990000       0.06220000      -1.51780000
H        0.78610000      -4.10820000      -0.88430000
H        0.45560000      -3.13290000      -2.38780000
H        2.75030000      -2.08150000      -2.21120000
H        3.08470000      -3.06300000      -0.71200000
H        0.14490000      -2.51460000       1.17610000
H        1.88960000      -2.37340000       1.38300000
H        0.23970000      -0.37350000       2.20700000
H        2.76160000       0.25790000       0.56560000
H        1.98290000       1.34730000       1.72160000
H        2.71410000      -0.16040000       2.27910000
