19
Properties=species:S:1:pos:R:3 pbc="F F F"
C       -0.76590000       1.27960000       0.33790000
C       -0.04440000      -0.01630000       0.04990000
N        1.26090000       0.06730000      -0.62560000
C        1.19140000      -0.47870000       0.74310000
C        1.90550000       0.29920000       1.81540000
C        1.69400000      -0.16770000       3.28870000
C        3.21810000      -0.44960000       3.30390000
O        4.02180000      -0.83470000       4.10900000
N        3.32150000      -0.06530000       1.98830000
H       -0.06810000       2.07990000       0.59220000
H       -1.33020000       1.60190000      -0.54360000
H       -1.47450000       1.15740000       1.16410000
H       -0.70440000      -0.82210000      -0.27080000
H        1.36820000      -0.68110000      -1.30440000
H        1.30410000      -1.55740000       0.85510000
H        1.76540000       1.37340000       1.66860000
H        1.37150000       0.60440000       3.98870000
H        1.07140000      -1.05670000       3.40920000
H        4.12270000       0.06250000       1.38740000
