19
Properties=species:S:1:pos:R:3 pbc="F F F"
C       -0.27440000       1.53060000      -0.19870000
C       -0.10810000       0.01390000      -0.08400000
C        0.67670000      -0.41840000       1.15350000
C        0.78550000      -1.95190000       1.27200000
C        1.44150000      -2.37890000       2.50030000
C        1.98390000      -2.69460000       3.52530000
O        1.99790000       0.13500000       1.05540000
C        2.56040000       0.67260000       2.15820000
O        3.66970000       1.11320000       2.16160000
H        0.69740000       2.02650000      -0.26410000
H       -0.84780000       1.79050000      -1.09290000
H       -0.80640000       1.93910000       0.66790000
H       -1.09100000      -0.47100000      -0.04620000
H        0.40310000      -0.37680000      -0.97210000
H        0.19230000      -0.02470000       2.05770000
H       -0.22400000      -2.37770000       1.21930000
H        1.33520000      -2.32780000       0.40060000
H        2.46910000      -2.98890000       4.42310000
H        1.88160000       0.67040000       3.03100000
