15
Properties=species:S:1:pos:R:3 pbc="F F F"
C       -0.02380000       1.52000000       0.15220000
C       -0.01670000       0.04000000      -0.02120000
C        0.05650000      -0.71520000      -1.18100000
N        0.15690000      -0.20390000      -2.50390000
C        0.02790000      -2.05610000      -0.72060000
O        0.09120000      -3.14520000      -1.51940000
N       -0.05430000      -2.14790000       0.59460000
N       -0.08710000      -0.84690000       1.00100000
H        0.18250000       1.98250000      -0.81540000
H       -0.99270000       1.89010000       0.50780000
H        0.73930000       1.85060000       0.86570000
H       -0.71300000      -0.33140000      -3.01380000
H        0.86460000      -0.71130000      -3.02630000
H        0.07750000      -3.91910000      -0.94260000
H       -0.15510000      -0.65030000       1.98360000
