18
Properties=species:S:1:pos:R:3 pbc="F F F"
O       -0.14660000       1.39730000       0.04220000
C       -0.12230000       0.00570000      -0.07980000
C       -1.34200000      -0.88820000      -0.03260000
C       -2.45180000      -0.18020000      -0.77540000
C       -3.90870000      -0.29860000      -0.61460000
N       -3.22100000       0.96600000      -0.25410000
C       -1.62700000      -0.12200000      -2.07600000
C       -0.46600000      -0.77500000      -1.31030000
O        0.34550000      -1.75910000      -1.84330000
H       -1.00980000       1.71960000      -0.24510000
H        0.73130000      -0.39930000       0.45720000
H       -1.45550000      -1.69780000       0.67940000
H       -4.55580000      -0.23280000      -1.48520000
H       -4.29260000      -0.92190000       0.18910000
H       -3.11890000       1.00630000       0.75840000
H       -2.02390000      -0.79500000      -2.83990000
H       -1.45180000       0.86710000      -2.51100000
H        1.15870000      -1.34610000      -2.15450000
