21
Properties=species:S:1:pos:R:3 pbc="F F F"
C       -0.02820000       1.55980000      -0.10410000
C        1.52700000       1.33450000       0.00180000
C        1.15880000       0.18480000       1.00840000
C       -0.03910000      -0.01110000       0.00970000
C        0.74210000      -0.36750000      -1.25890000
C        1.75430000       0.50230000      -1.26400000
C        2.60870000       0.41780000      -2.49090000
C        2.06700000      -0.89670000      -3.15140000
C        0.68980000      -1.23090000      -2.48120000
H       -0.45690000       2.06390000       0.76950000
H       -0.41020000       1.99890000      -1.02920000
H        2.21540000       2.13760000       0.26310000
H        1.86820000      -0.64020000       1.10980000
H        0.84590000       0.55470000       1.99060000
H       -0.93510000      -0.56950000       0.27900000
H        2.47190000       1.29050000      -3.14630000
H        3.68510000       0.35710000      -2.28920000
H        1.98490000      -0.80750000      -4.23780000
H        2.76850000      -1.71190000      -2.95070000
H        0.58900000      -2.30320000      -2.27360000
H       -0.15610000      -0.96760000      -3.13300000
