21
Properties=species:S:1:pos:R:3 pbc="F F F"
C       -0.01190000       1.56540000      -0.00580000
C       -0.00140000       0.03520000      -0.00750000
C       -1.41280000      -0.57020000       0.03800000
C       -1.40650000      -2.07410000       0.00820000
C       -0.76210000      -3.08580000       1.03260000
C       -1.40090000      -4.03200000      -0.03780000
C       -2.63060000      -3.06370000      -0.00270000
C       -0.82840000      -3.03190000      -1.05160000
O       -0.24870000      -2.99870000      -2.09440000
H        1.00450000       1.96980000      -0.03660000
H       -0.55280000       1.95840000      -0.87370000
H       -0.50000000       1.95840000       0.89330000
H        0.51320000      -0.33400000      -0.90230000
H        0.57540000      -0.32890000       0.85230000
H       -1.94040000      -0.21960000       0.93550000
H       -1.99300000      -0.20540000      -0.82030000
H        0.32520000      -3.09100000       1.13030000
H       -1.25900000      -3.10960000       2.00610000
H       -1.40560000      -5.11900000      -0.05010000
H       -3.19400000      -3.08730000       0.93380000
H       -3.28940000      -3.04470000      -0.87350000
