19
Properties=species:S:1:pos:R:3 pbc="F F F"
C        0.09700000       1.46510000       0.00480000
N        0.00520000       0.02410000       0.07530000
C       -1.28490000      -0.57790000       0.47920000
C       -0.49160000      -1.57600000       1.32740000
C        0.73160000      -0.67080000       1.15860000
N       -0.96860000      -2.26570000       2.49410000
C       -0.49940000      -3.07000000       1.33140000
C       -1.56880000      -3.82850000       0.62870000
O       -1.37240000      -4.81290000      -0.03850000
H        1.12390000       1.76040000      -0.23420000
H       -0.55230000       1.83770000      -0.79410000
H       -0.19520000       1.96790000       0.94690000
H       -1.90620000       0.07660000       1.11230000
H       -1.89150000      -0.95580000      -0.35020000
H        1.68080000      -1.12940000       0.85990000
H        0.90070000      -0.04390000       2.05210000
H       -0.26910000      -2.28000000       3.23290000
H        0.46450000      -3.57080000       1.37980000
H       -2.58640000      -3.40240000       0.77330000
