14
Properties=species:S:1:pos:R:3 pbc="F F F"
O        0.08090000      -0.00670000      -0.49990000
C        0.02130000       1.13160000      -0.14460000
C       -1.10290000       2.09830000       0.28270000
N       -0.09200000       3.17620000       0.51050000
C        0.46520000       3.16030000       1.90600000
C        1.70420000       2.33660000       1.46310000
C        1.04150000       2.26400000       0.06570000
H       -1.79490000       2.34110000      -0.53180000
H       -1.68930000       1.80210000       1.16010000
H        0.68200000       4.16740000       2.27110000
H       -0.18830000       2.66430000       2.63260000
H        2.63870000       2.89970000       1.46490000
H        1.87100000       1.38100000       1.96400000
H        1.63670000       2.54680000      -0.80700000
