21
Properties=species:S:1:pos:R:3 pbc="F F F"
C        0.04200000       1.51620000       0.14560000
N       -0.07960000       0.07120000      -0.03860000
C        0.64110000      -0.47360000      -1.18020000
C        2.21460000      -0.50390000      -1.07500000
C        2.12340000      -1.97640000      -0.60020000
C        0.68280000      -2.05160000      -1.17460000
C       -0.40080000      -2.83030000      -0.44780000
C        0.11470000       0.11790000      -2.41360000
N       -0.26690000       0.56190000      -3.41070000
H        1.07850000       1.88110000       0.23480000
H       -0.42330000       2.03070000      -0.70020000
H       -0.49960000       1.80070000       1.05140000
H        0.22520000      -0.40920000       0.80050000
H        2.69450000      -0.40770000      -2.05130000
H        2.65280000       0.22810000      -0.39330000
H        2.85530000      -2.67760000      -1.00520000
H        2.13560000      -2.06360000       0.49110000
H        0.73190000      -2.38140000      -2.21650000
H       -0.49050000      -2.53720000       0.60240000
H       -1.37790000      -2.68270000      -0.91700000
H       -0.17020000      -3.90080000      -0.47390000
