19
Properties=species:S:1:pos:R:3 pbc="F F F"
C        0.17740000       1.48440000       0.22280000
C       -0.09720000       0.01940000      -0.14470000
C        0.66070000      -0.43360000      -1.35990000
C        0.45040000      -0.06640000      -2.82270000
N        1.29420000      -1.26040000      -3.22510000
C        2.66070000      -0.83970000      -2.71390000
C        2.12580000      -0.93400000      -1.29650000
C        1.02480000      -1.82000000      -1.80770000
H        1.23810000       1.64190000       0.44280000
H       -0.09330000       2.15470000      -0.59980000
H       -0.40000000       1.78570000       1.10200000
H        0.15820000      -0.62760000       0.70440000
H       -1.17280000      -0.11930000      -0.31770000
H       -0.58230000      -0.22840000      -3.14660000
H        0.80920000       0.89550000      -3.20860000
H        3.38850000      -1.62230000      -2.94540000
H        3.01690000       0.12110000      -3.10390000
H        2.65270000      -0.99720000      -0.35190000
H        0.67600000      -2.81600000      -1.57310000
