16
Properties=species:S:1:pos:R:3 pbc="F F F"
C        0.02600000       1.51040000      -0.27860000
N        0.05150000       0.06440000      -0.06630000
C       -1.02030000      -0.49320000       0.80280000
C       -0.11310000      -1.70640000       1.21380000
C        0.77090000      -0.41120000       1.14670000
C       -0.37960000      -0.02050000       2.19870000
O       -0.56830000       1.13340000       2.90480000
C       -0.40620000      -1.45570000       2.68070000
O       -0.57660000      -2.04280000       3.70960000
H        0.99110000       1.82420000      -0.68960000
H       -0.74250000       1.74490000      -1.02230000
H       -0.17530000       2.09550000       0.63110000
H       -2.07570000      -0.53320000       0.53380000
H        0.04050000      -2.60450000       0.62800000
H        1.85020000      -0.35340000       1.28750000
H       -0.73230000       0.89370000       3.82600000
