18
Properties=species:S:1:pos:R:3 pbc="F F F"
C        0.16340000       1.51080000      -0.12460000
C        0.02530000       0.02080000       0.02540000
C       -1.28340000      -0.66750000       0.47780000
N       -0.48680000      -1.80080000       1.05640000
C        0.69670000      -0.92950000       1.10380000
C        0.63450000      -1.99590000       0.04760000
C        0.52140000      -0.96750000      -1.06990000
C        1.31100000      -3.30130000       0.04570000
O        1.93350000      -3.73010000      -0.89700000
H        1.20060000       1.79830000      -0.32560000
H       -0.44740000       1.87100000      -0.96070000
H       -0.16410000       2.03640000       0.77890000
H       -1.78250000      -0.15080000       1.30190000
H       -2.01420000      -0.95090000      -0.28820000
H        1.34550000      -0.80620000       1.96210000
H       -0.15070000      -1.17260000      -1.90930000
H        1.51400000      -0.70680000      -1.44400000
H        1.21130000      -3.86690000       0.99700000
