16
Properties=species:S:1:pos:R:3 pbc="F F F"
C        0.10040000       1.52860000      -0.29750000
N        1.04810000       2.37380000       0.39010000
C        1.85280000       2.02630000       1.29100000
O        2.11670000       0.84230000       1.90520000
C        1.46080000      -0.36580000       1.61660000
C        1.17240000      -0.92180000       0.19240000
O        0.25130000      -1.86580000       0.86680000
C       -0.07600000      -0.54510000       1.45240000
C       -0.02830000       0.04700000       0.01790000
H       -0.89040000       1.98640000      -0.16560000
H        0.30730000       1.62540000      -1.37290000
H        2.51720000       2.77180000       1.72720000
H        1.90390000      -1.10890000       2.27780000
H        1.86080000      -1.33180000      -0.54730000
H       -0.86520000      -0.50920000       2.20410000
H       -0.80180000      -0.39950000      -0.61510000
