19
Properties=species:S:1:pos:R:3 pbc="F F F"
O        0.03690000       0.05010000       0.53400000
C       -0.00260000       1.18540000       0.11360000
C       -1.31910000       1.91400000      -0.16840000
C       -1.06470000       3.33570000      -0.69190000
C       -0.15740000       3.25000000      -1.94270000
C        1.21120000       2.97500000      -1.33560000
C        1.19760000       3.49500000       0.07020000
C       -0.17930000       4.09020000       0.32890000
C        1.22170000       1.98270000      -0.16940000
H       -1.88830000       1.31420000      -0.88830000
H       -1.90400000       1.92340000       0.75880000
H       -2.00780000       3.84950000      -0.89100000
H       -0.48910000       2.47850000      -2.64590000
H       -0.13720000       4.20460000      -2.48100000
H        2.09940000       3.01500000      -1.95510000
H        2.07540000       3.93390000       0.52950000
H       -0.16230000       5.16550000       0.11680000
H       -0.52770000       3.95980000       1.35910000
H        2.15240000       1.46460000       0.03120000
