21
Properties=species:S:1:pos:R:3 pbc="F F F"
C       -0.06800000       1.61100000      -0.06060000
C        1.46360000       1.51730000       0.01370000
C        1.34840000       0.19960000       0.84460000
C        2.47270000      -0.46180000       0.02110000
C        2.23430000      -1.91030000      -0.41330000
C        1.06890000      -1.78060000      -1.43780000
C        0.65270000      -0.30290000      -1.36070000
C        0.00810000       0.06420000      -0.00570000
C        1.95810000       0.50530000      -1.09040000
H       -0.48410000       2.04310000       0.85490000
H       -0.54170000       2.07150000      -0.93490000
H        2.11680000       2.34720000       0.28160000
H        1.27690000       0.16510000       1.93180000
H        3.46690000      -0.23800000       0.41450000
H        3.12620000      -2.34600000      -0.87500000
H        1.97400000      -2.54680000       0.43910000
H        1.41370000      -2.02390000      -2.44870000
H        0.23110000      -2.45040000      -1.21890000
H        0.05900000       0.02740000      -2.21710000
H       -0.83460000      -0.54160000       0.33100000
H        2.57090000       0.80630000      -1.94030000
