16
Properties=species:S:1:pos:R:3 pbc="F F F"
N       -0.15730000       1.47130000      -0.37240000
C       -0.29210000       0.11100000      -0.41160000
N       -1.05690000      -0.51180000       0.39630000
C       -1.11340000      -1.94470000       0.31100000
C       -1.97450000      -2.44660000       1.46820000
O       -2.32070000      -3.59140000       1.64190000
C       -1.57760000      -2.48080000      -1.08880000
N       -1.87940000      -3.80190000      -1.10070000
O       -1.57460000      -1.76810000      -2.07070000
H        0.16900000       1.92980000      -1.20700000
H       -0.86720000       1.96760000       0.14650000
H        0.34620000      -0.36920000      -1.15860000
H       -0.13000000      -2.42770000       0.46340000
H       -2.25390000      -1.63570000       2.16950000
H       -2.05350000      -4.27460000      -0.22290000
H       -2.24840000      -4.18350000      -1.95720000
