18
Properties=species:S:1:pos:R:3 pbc="F F F"
N       -0.75400000       0.99610000       0.20420000
C       -0.26700000      -0.35760000      -0.02870000
C        0.76790000      -0.46250000      -1.18950000
O        1.20340000      -1.78300000      -1.44300000
C        0.21600000       0.16370000      -2.40940000
N       -0.26250000       0.62410000      -3.35570000
C        0.31900000      -0.96880000       1.23690000
C        0.94400000      -0.13150000       2.29140000
N       -0.36460000      -0.77300000       2.51810000
H        0.00910000       1.66600000       0.22410000
H       -1.38440000       1.28680000      -0.53500000
H       -1.13680000      -0.96310000      -0.32190000
H        1.66770000       0.09200000      -0.89770000
H        0.45790000      -2.29080000      -1.78470000
H        0.70520000      -1.97260000       1.08730000
H        1.76550000      -0.53230000       2.87800000
H        0.96280000       0.94730000       2.16550000
H       -1.08130000      -0.06130000       2.37450000
