16
Properties=species:S:1:pos:R:3 pbc="F F F"
C       -0.03350000       1.52940000       0.05230000
C        0.00160000       0.00320000      -0.05570000
N        0.74230000      -0.46630000      -1.21280000
N        0.11290000      -0.67020000      -2.40280000
N        1.00550000      -1.09190000      -3.24630000
C        2.21870000      -1.14610000      -2.63270000
C        2.06620000      -0.74200000      -1.32230000
N        2.93070000      -0.68240000      -0.22780000
H        0.97150000       1.94960000       0.16390000
H       -0.48560000       1.96240000      -0.84350000
H       -0.62380000       1.83110000       0.92270000
H        0.45860000      -0.44670000       0.83130000
H       -1.01000000      -0.39570000      -0.15680000
H        3.10930000      -1.46830000      -3.14800000
H        3.86860000      -0.96530000      -0.47940000
H        2.96830000       0.22980000       0.21260000
