18
Properties=species:S:1:pos:R:3 pbc="F F F"
C       -0.07510000       1.43060000       0.05640000
N        0.10710000      -0.00320000      -0.08530000
C        0.65500000      -0.67880000       1.00520000
C        1.25730000      -0.20070000       2.13240000
O        1.68740000      -1.23590000       2.92030000
C        1.35140000      -2.39980000       2.26980000
N        1.64840000      -3.64140000       2.83940000
C        0.71900000      -2.11370000       1.09930000
N        0.14420000      -2.99880000       0.16990000
H        0.90380000       1.91450000       0.14710000
H       -0.56250000       1.82570000      -0.83800000
H       -0.67190000       1.71280000       0.93960000
H       -0.72400000      -0.47450000      -0.42170000
H        1.46450000       0.79020000       2.49710000
H        2.64050000      -3.74830000       3.02990000
H        1.15160000      -3.79950000       3.71180000
H        0.35390000      -3.95760000       0.42710000
H        0.49280000      -2.83040000      -0.76890000
