19
Properties=species:S:1:pos:R:3 pbc="F F F"
C        0.05440000       1.53590000       0.00750000
C        0.02030000       0.02570000       0.04610000
C        1.00360000      -0.86440000      -0.80000000
C        0.50990000      -1.96130000       0.22770000
C        0.51920000      -0.81080000       1.28250000
C        1.26610000      -3.23460000       0.39730000
O        2.01330000      -3.47120000       1.31450000
C       -0.98480000      -2.00180000      -0.14990000
C       -1.30140000      -0.70990000      -0.24970000
H        1.05730000       1.91530000       0.22760000
H       -0.23810000       1.91460000      -0.97840000
H       -0.63310000       1.96380000       0.74570000
H        0.76440000      -1.02510000      -1.85340000
H        2.05670000      -0.59760000      -0.66460000
H        1.52650000      -0.54400000       1.61450000
H       -0.16040000      -0.91120000       2.13100000
H        1.11100000      -3.97920000      -0.41950000
H       -1.59030000      -2.88890000      -0.27040000
H       -2.25010000      -0.24260000      -0.47610000
