19
Properties=species:S:1:pos:R:3 pbc="F F F"
C        0.03140000       1.52890000       0.04190000
C       -0.03560000       0.03570000      -0.02760000
C       -0.84150000      -0.81240000       0.85930000
N        0.64390000      -0.86660000       1.04060000
C        1.13240000      -1.67680000      -0.05170000
N        1.94060000      -2.63870000      -0.09360000
C        0.56160000      -0.81130000      -1.17690000
C       -0.35860000      -1.42300000      -2.22210000
O        1.60950000      -0.08130000      -1.80050000
H        0.99510000       1.88180000      -0.33090000
H       -0.75880000       1.97830000      -0.57050000
H       -0.10050000       1.87120000       1.07210000
H       -1.33210000      -0.33290000       1.70090000
H       -1.35110000      -1.69970000       0.49350000
H        2.23970000      -2.90270000       0.84920000
H       -1.22500000      -1.91920000      -1.77670000
H       -0.70960000      -0.64390000      -2.90510000
H        0.19280000      -2.16850000      -2.80380000
H        2.32340000      -0.70530000      -1.97550000
