16
Properties=species:S:1:pos:R:3 pbc="F F F"
O       -0.06650000      -0.04590000       0.00330000
C       -0.00870000       1.16300000       0.00900000
C       -1.23880000       2.10940000       0.03240000
C       -0.68210000       3.55040000       0.03160000
N        0.76580000       3.34520000       0.00950000
C        1.85000000       4.15250000      -0.00190000
C        2.98020000       3.33600000      -0.02280000
C        2.54750000       1.99440000      -0.02390000
C        1.15930000       2.02610000      -0.00340000
H       -1.86550000       1.90270000      -0.83890000
H       -1.83900000       1.89350000       0.91990000
H       -0.99700000       4.12350000      -0.84580000
H       -0.97130000       4.11450000       0.92360000
H        1.75950000       5.22770000       0.00530000
H        4.00130000       3.68660000      -0.03580000
H        3.15940000       1.10650000      -0.03770000
