18
Properties=species:S:1:pos:R:3 pbc="F F F"
N       -0.06030000       1.50010000       0.46680000
C       -0.07740000       0.13270000      -0.06610000
C        0.66460000      -0.73380000       0.96560000
O        1.84820000      -0.84080000       1.10700000
O       -0.23440000      -1.36350000       1.76300000
C       -1.57930000      -0.99050000       1.40500000
C       -1.46910000      -0.46420000      -0.01570000
C       -2.64560000       0.06510000      -0.77840000
C       -2.02190000      -1.25350000      -1.17390000
H        0.90190000       1.81600000       0.55030000
H       -0.52740000       2.12720000      -0.18070000
H        0.39920000       0.01730000      -1.04960000
H       -2.21190000      -1.87620000       1.50050000
H       -1.91980000      -0.21960000       2.10440000
H       -3.61650000       0.04980000      -0.29320000
H       -2.49600000       0.91850000      -1.43190000
H       -1.44310000      -1.28890000      -2.09090000
H       -2.56920000      -2.16440000      -0.95530000
