21
Properties=species:S:1:pos:R:3 pbc="F F F"
C       -0.01310000       1.56040000       0.00930000
C        0.13710000       0.04330000       0.00260000
C        1.21410000      -0.63630000      -0.84190000
C        2.50030000      -0.73130000       0.03850000
C        2.17710000      -0.10560000       1.39170000
C        0.75210000      -0.71470000       1.23050000
C       -0.08800000      -1.07080000       2.42800000
C        1.39990000      -1.73460000       0.17010000
O        1.45970000      -3.10290000       0.09420000
H        0.94450000       2.06950000       0.14710000
H       -0.43240000       1.90830000      -0.94140000
H       -0.69050000       1.88860000       0.80620000
H       -0.83390000      -0.41690000      -0.22350000
H        1.29410000      -0.69780000      -1.92050000
H        3.46440000      -0.87340000      -0.43250000
H        2.72560000      -0.60650000       2.19520000
H        2.26000000       0.97890000       1.52010000
H       -0.38310000      -0.17280000       2.98470000
H       -1.00650000      -1.59250000       2.13470000
H        0.45890000      -1.72240000       3.11800000
H        0.61850000      -3.42850000      -0.24560000
