17
Properties=species:S:1:pos:R:3 pbc="F F F"
N        0.05470000       1.42000000       0.01550000
C       -0.04260000       0.05810000       0.00320000
C       -1.13470000      -0.73900000       0.06040000
C       -0.73540000      -2.14350000      -0.12110000
O       -1.42360000      -3.11000000      -0.36680000
N        0.68420000      -2.18490000      -0.03020000
C        1.43360000      -2.59390000      -1.25640000
C        1.84050000      -1.11540000      -1.49710000
C        1.18740000      -0.80060000      -0.10940000
H        0.94350000       1.82650000       0.25930000
H       -0.74420000       1.95100000       0.32440000
H       -2.16770000      -0.43410000       0.15020000
H        2.26620000      -3.26380000      -1.02590000
H        0.79220000      -3.06350000      -2.00590000
H        2.90940000      -0.90900000      -1.57220000
H        1.32030000      -0.64230000      -2.33150000
H        1.92000000      -0.55490000       0.67100000
