18
Properties=species:S:1:pos:R:3 pbc="F F F"
O       -0.02390000      -0.01100000      -0.43320000
C        0.01580000       1.13380000      -0.05240000
C        1.24840000       1.94380000       0.03480000
C        1.15510000       3.45050000      -0.19200000
C        1.45490000       2.94750000       1.17870000
C        0.48580000       3.10260000       2.30930000
C        0.75060000       2.42900000       3.63360000
C        0.87670000       3.92690000       3.51290000
H       -0.91550000       1.66540000       0.25210000
H        2.13190000       1.43140000      -0.33020000
H        1.93830000       3.91130000      -0.78270000
H        0.16250000       3.85390000      -0.37130000
H        2.49490000       3.01240000       1.49010000
H       -0.55640000       3.17410000       2.01370000
H       -0.09190000       2.02190000       4.18130000
H        1.66300000       1.84970000       3.72990000
H        1.87370000       4.35510000       3.52880000
H        0.12000000       4.55020000       3.97590000
