18
Properties=species:S:1:pos:R:3 pbc="F F F"
O        0.06500000       1.46960000       0.06250000
C        0.07000000       0.05010000       0.04080000
C       -1.34420000      -0.59140000      -0.01630000
C       -1.21810000      -1.82690000      -0.94230000
C       -2.45360000      -2.02820000      -1.85140000
C       -2.33800000      -3.20660000      -2.70810000
N       -2.22110000      -4.14220000      -3.37650000
C        0.06860000      -1.55800000      -1.69240000
C        0.76340000      -0.55660000      -1.15740000
H       -0.27310000       1.77120000      -0.78840000
H        0.58860000      -0.22610000       0.96750000
H       -1.74190000      -0.83500000       0.97140000
H       -2.02400000       0.14320000      -0.46550000
H       -1.10570000      -2.74060000      -0.34320000
H       -3.35650000      -2.13040000      -1.23860000
H       -2.59620000      -1.14630000      -2.48690000
H        0.37560000      -2.16490000      -2.53750000
H        1.73340000      -0.20320000      -1.48930000
