15
Properties=species:S:1:pos:R:3 pbc="F F F"
O       -0.19600000       1.46030000       0.00270000
C       -0.09380000       0.07460000      -0.00390000
C       -1.35430000      -0.76150000       0.04990000
N       -2.55770000      -0.12650000      -0.40430000
C       -2.32520000       0.35720000      -1.68080000
N       -1.22240000      -0.02430000      -2.24120000
C       -0.48400000      -0.73100000      -1.22670000
C       -3.30210000       1.18540000      -2.30590000
C       -4.14210000       1.89160000      -2.79640000
H       -0.02360000       1.77290000      -0.89400000
H        0.75040000      -0.32290000       0.55600000
H       -1.46230000      -1.60230000       0.72510000
H       -3.14570000       0.39170000       0.23030000
H        0.14740000      -1.54590000      -1.56020000
H       -4.87620000       2.51290000      -3.24780000
