18
Properties=species:S:1:pos:R:3 pbc="F F F"
C       -0.10120000       1.52050000       0.04570000
N        0.10310000       0.08690000      -0.08890000
C        0.65450000      -0.54870000      -1.25970000
C        1.36830000      -0.57280000       0.07090000
C        2.55290000       0.25580000      -0.50830000
C        3.80950000      -0.46030000      -0.54130000
N        4.80130000      -1.05390000      -0.59750000
C        1.79370000       0.24870000      -1.92710000
N        2.37940000      -0.45830000      -3.03540000
H        0.69220000       2.15350000      -0.37670000
H       -1.04040000       1.78440000      -0.44870000
H       -0.19730000       1.76060000       1.10850000
H        0.08290000      -1.31770000      -1.76920000
H        1.47650000      -1.36120000       0.80740000
H        2.70520000       1.23540000      -0.04400000
H        1.52580000       1.25560000      -2.26170000
H        3.19560000       0.02940000      -3.39110000
H        2.69250000      -1.38470000      -2.75820000
