18
Properties=species:S:1:pos:R:3 pbc="F F F"
O        0.62730000       0.51920000       1.23140000
C        0.27210000       1.29240000       0.36680000
N        1.04570000       1.68950000      -0.67870000
C        2.40490000       1.20880000      -0.85820000
C        3.43060000       2.02340000      -0.06150000
N        4.76870000       1.48670000      -0.28860000
C        5.80190000       2.23890000       0.41350000
C        7.12830000       1.66200000       0.17590000
N        8.17190000       1.19740000       0.00640000
H       -0.73520000       1.75270000       0.33810000
H        0.66840000       2.35780000      -1.33060000
H        2.42940000       0.16660000      -0.52410000
H        2.65840000       1.23190000      -1.92120000
H        3.41760000       3.06550000      -0.40660000
H        3.13200000       2.02820000       1.00030000
H        4.80390000       0.51620000       0.00970000
H        5.80380000       3.26980000       0.03750000
H        5.65000000       2.30620000       1.50630000
