17
Properties=species:S:1:pos:R:3 pbc="F F F"
O       -0.03690000       1.41660000       0.12690000
C       -0.05920000       0.00270000       0.09860000
C       -1.50250000      -0.54330000      -0.01970000
C       -1.55330000      -2.08760000       0.25460000
N       -1.96130000      -2.23350000       1.65920000
C       -2.34150000      -1.07580000       2.03810000
N       -2.31690000      -0.04740000       1.10800000
C       -2.05490000      -0.14440000      -1.31290000
C       -2.44220000       0.20840000      -2.39570000
H       -0.37170000       1.72380000      -0.72470000
H        0.55150000      -0.40580000      -0.71930000
H        0.36530000      -0.33420000       1.04950000
H       -2.28380000      -2.57630000      -0.39860000
H       -0.58160000      -2.56050000       0.07610000
H       -2.72250000      -0.86990000       3.03470000
H       -2.09470000       0.89110000       1.41590000
H       -2.81690000       0.49840000      -3.34660000
