20
Properties=species:S:1:pos:R:3 pbc="F F F"
C       -0.03850000       1.79570000      -0.22120000
C        0.12880000       0.29380000      -0.13070000
C        1.43040000      -0.42140000      -0.39470000
O        2.62320000       0.32170000      -0.35310000
C        2.84370000       0.82500000       0.96590000
C        1.83590000       0.13990000       1.92420000
C        1.27440000       1.07820000       2.99680000
C        0.82510000      -0.49770000       0.97690000
H        0.88540000       2.33620000      -0.01160000
H       -0.34700000       2.07410000      -1.23500000
H       -0.80920000       2.15690000       0.46820000
H       -0.73430000      -0.24850000      -0.51380000
H        1.49350000      -1.25200000      -1.08990000
H        3.88600000       0.62260000       1.23880000
H        2.70820000       1.91490000       0.97640000
H        2.34630000      -0.68850000       2.43170000
H        0.74670000       1.92550000       2.54940000
H        0.57110000       0.55130000       3.64930000
H        2.07570000       1.47690000       3.62890000
H        0.33000000      -1.39820000       1.32410000
