20
Properties=species:S:1:pos:R:3 pbc="F F F"
C       -0.46760000       1.37850000      -0.06900000
C        0.04600000      -0.06150000       0.01010000
C        0.95290000      -0.41430000      -1.16320000
O        0.81950000      -0.27350000       1.19550000
C        0.07970000      -0.48700000       2.36260000
C       -0.47750000      -1.91120000       2.62180000
O        0.25830000      -2.00310000       3.85920000
C        0.95900000      -0.77040000       3.59030000
H        0.37460000       2.07750000      -0.08000000
H       -1.05310000       1.52620000      -0.98200000
H       -1.11020000       1.63020000       0.77970000
H       -0.81330000      -0.75150000       0.01690000
H        1.83130000       0.23890000      -1.17000000
H        1.29740000      -1.44850000      -1.08340000
H        0.42350000      -0.29220000      -2.11270000
H       -0.66460000       0.30240000       2.52610000
H       -1.55710000      -2.01560000       2.77970000
H       -0.13860000      -2.64650000       1.87960000
H        2.00950000      -0.93560000       3.31960000
H        0.89790000      -0.06820000       4.42880000
