16
Properties=species:S:1:pos:R:3 pbc="F F F"
C        0.38350000      -1.11110000       0.17500000
C        0.17260000       0.06960000       0.10260000
C       -0.08060000       1.50910000       0.01520000
C       -0.94750000       2.00220000       1.21290000
N       -0.48250000       1.65400000       2.53780000
C        0.72860000       1.79170000       2.87350000
N        1.82760000       2.23120000       2.13590000
C        1.94810000       2.49190000       0.77600000
N        1.16680000       2.24440000      -0.19070000
H        0.56350000      -2.15580000       0.23510000
H       -0.68380000       1.68430000      -0.88550000
H       -1.03660000       3.09250000       1.12060000
H       -1.95330000       1.58720000       1.09180000
H        1.01390000       1.55750000       3.90060000
H        2.66540000       2.39260000       2.67560000
H        2.89300000       2.99100000       0.55270000
