15
Properties=species:S:1:pos:R:3 pbc="F F F"
N       -0.04000000       1.17120000       0.30300000
C       -0.01410000      -0.06420000       0.05340000
O        1.11260000      -0.84210000       0.02500000
C        0.86100000      -2.09380000      -0.63790000
C       -0.65570000      -2.30010000      -0.62990000
C       -1.28410000      -2.79100000       0.69020000
O       -1.78030000      -1.47110000       1.00190000
C       -1.22850000      -0.92610000      -0.21890000
H        0.90290000       1.52540000       0.47740000
H        1.25360000      -2.03320000      -1.66000000
H        1.40860000      -2.87310000      -0.10030000
H       -1.02880000      -2.76710000      -1.54010000
H       -2.10120000      -3.51330000       0.58090000
H       -0.57740000      -3.15810000       1.44520000
H       -1.98010000      -0.41710000      -0.82490000
