19
Properties=species:S:1:pos:R:3 pbc="F F F"
C       -0.14380000       1.59140000       0.00560000
C        0.05320000       0.05640000      -0.01210000
C       -1.33210000      -0.63300000       0.01860000
C        0.79910000      -0.34940000      -1.25370000
C        1.96750000      -0.97380000      -1.23240000
C        2.66030000      -1.33690000       0.03620000
O        1.97790000      -0.96490000       1.23590000
C        0.78570000      -0.32740000       1.28270000
O        0.32290000      -0.07350000       2.36330000
H        0.81660000       2.11490000      -0.01910000
H       -0.72260000       1.90270000      -0.87000000
H       -0.67940000       1.88930000       0.90920000
H       -1.91690000      -0.33290000      -0.85700000
H       -1.23360000      -1.72250000       0.00330000
H       -1.87320000      -0.34510000       0.92230000
H        0.32260000      -0.10010000      -2.19940000
H        2.48200000      -1.25410000      -2.14720000
H        2.82380000      -2.42200000       0.09150000
H        3.65380000      -0.87010000       0.08240000
