21
Properties=species:S:1:pos:R:3 pbc="F F F"
C       -0.42280000       1.52250000      -0.03200000
C       -0.02550000       0.04650000      -0.03380000
C        0.77890000      -0.44160000      -1.27180000
C        1.91570000      -1.28640000      -0.64610000
O        1.41160000      -1.66510000       0.62120000
C        0.87760000      -0.43330000       1.13180000
C        2.07750000       0.46730000       1.46540000
C        2.97670000       0.63770000       0.22830000
O        3.12670000      -0.57490000      -0.50510000
H        0.43970000       2.18420000      -0.15870000
H       -1.12080000       1.73570000      -0.84790000
H       -0.91980000       1.79780000       0.90470000
H       -0.94110000      -0.55070000       0.03170000
H        0.16780000      -1.06470000      -1.92850000
H        1.18010000       0.37750000      -1.87460000
H        2.17050000      -2.19250000      -1.19750000
H        0.30460000      -0.66690000       2.03270000
H        1.76190000       1.44810000       1.83720000
H        2.63990000      -0.02660000       2.26400000
H        2.57520000       1.42450000      -0.42790000
H        3.98620000       0.94320000       0.51660000
