17
Properties=species:S:1:pos:R:3 pbc="F F F"
C        0.12330000      -1.24660000       0.07080000
C        0.09420000      -0.04270000       0.06670000
C        0.00690000       1.39640000       0.02770000
C        0.46790000       2.17720000       1.24650000
C        1.29950000       2.19370000      -0.00350000
N       -1.08960000       2.01140000      -0.69360000
C       -1.57170000       1.37700000      -1.91770000
C       -2.39700000       1.36040000      -0.67710000
H        0.16800000      -2.30750000       0.08550000
H       -0.11540000       3.06040000       1.47730000
H        0.82280000       1.61140000       2.09930000
H        2.23010000       1.63950000      -0.01600000
H        1.27610000       3.08810000      -0.61440000
H       -1.80500000       2.05770000      -2.73110000
H       -1.12050000       0.43330000      -2.21410000
H       -2.48440000       0.40590000      -0.16400000
H       -3.24580000       2.02890000      -0.56550000
