21
Properties=species:S:1:pos:R:3 pbc="F F F"
C       -0.01880000       1.29040000      -0.24130000
O       -0.09210000       0.00290000       0.32900000
C       -1.35140000      -0.60760000       0.17750000
C       -1.60330000      -1.27490000      -1.20780000
C       -0.80940000      -2.50280000      -0.67320000
C       -1.31360000      -2.04890000       0.72860000
C       -2.75660000      -2.53700000       0.91290000
O       -3.43620000      -2.63920000      -0.33250000
C       -3.09130000      -1.64600000      -1.28900000
H        0.97990000       1.68080000      -0.03170000
H       -0.16930000       1.27500000      -1.33090000
H       -0.76580000       1.96990000       0.19840000
H       -2.14530000       0.05950000       0.55410000
H       -1.26990000      -0.75700000      -2.11050000
H       -1.10610000      -3.49270000      -1.02540000
H        0.26620000      -2.36290000      -0.77640000
H       -0.70350000      -2.22670000       1.61690000
H       -2.77640000      -3.54400000       1.34340000
H       -3.29700000      -1.86540000       1.60120000
H       -3.71120000      -0.74230000      -1.15790000
H       -3.33590000      -2.07910000      -2.26500000
