17
Properties=species:S:1:pos:R:3 pbc="F F F"
C        0.01210000       1.52640000      -0.02430000
C        0.00960000       0.01960000      -0.01640000
C       -0.00960000      -0.70700000      -1.20380000
C       -0.01140000      -2.09760000      -1.16930000
C        0.00630000      -2.71690000       0.07290000
N        0.02500000      -2.04610000       1.22760000
C        0.02670000      -0.70860000       1.19070000
C        0.04800000      -0.00470000       2.52350000
H        0.89980000       1.93310000       0.47430000
H       -0.00360000       1.91340000      -1.04650000
H       -0.85780000       1.93610000       0.50240000
H       -0.02310000      -0.18100000      -2.15440000
H       -0.02620000      -2.68430000      -2.08110000
H        0.00570000      -3.80180000       0.15090000
H        0.92970000       0.63940000       2.62540000
H       -0.82910000       0.64090000       2.65270000
H        0.05980000      -0.74610000       3.32290000
