21
Properties=species:S:1:pos:R:3 pbc="F F F"
C        0.12610000       1.73850000       0.02410000
C        0.04930000       0.22120000      -0.01080000
C        0.73500000      -0.45330000      -1.20260000
C        1.09930000      -1.83710000      -0.64510000
C        2.20000000      -2.60120000      -1.37310000
C        1.45990000      -1.46930000       0.81850000
O        0.71530000      -0.30960000       1.15160000
C        1.10760000      -2.60280000       1.76190000
O        1.81180000      -3.55930000       1.95980000
H        1.16800000       2.07080000      -0.01780000
H       -0.41360000       2.16910000      -0.82570000
H       -0.32080000       2.12430000       0.94450000
H       -1.00720000      -0.08890000       0.02720000
H        0.09280000      -0.50270000      -2.08600000
H        1.64610000       0.09520000      -1.47290000
H        0.18760000      -2.45110000      -0.62980000
H        3.10960000      -1.99530000      -1.45100000
H        2.45380000      -3.51970000      -0.83560000
H        1.88690000      -2.87320000      -2.38580000
H        2.53830000      -1.26970000       0.90140000
H        0.10730000      -2.48650000       2.23870000
