20
Properties=species:S:1:pos:R:3 pbc="F F F"
C       -0.46630000       1.20660000       0.01080000
N        0.07080000      -0.13740000       0.16860000
C        1.46270000      -0.36700000      -0.19360000
C        1.03050000      -0.41690000       1.23360000
C        1.50500000       0.62420000       2.22310000
N        0.49800000       0.85790000       3.25710000
C        0.52650000      -0.05020000       4.39980000
C        0.99080000       1.35790000       4.53490000
H        0.28330000       2.01120000       0.07540000
H       -0.94300000       1.27680000      -0.97230000
H       -1.22170000       1.38380000       0.78090000
H        1.67720000      -1.27820000      -0.74640000
H        2.05810000       0.49540000      -0.49640000
H        0.87900000      -1.39730000       1.68560000
H        2.46580000       0.28280000       2.65400000
H        1.70360000       1.57850000       1.72540000
H       -0.44080000      -0.35560000       4.78780000
H        1.29050000      -0.82650000       4.41760000
H        2.06330000       1.51750000       4.64050000
H        0.36940000       2.10230000       5.02420000
