19
Properties=species:S:1:pos:R:3 pbc="F F F"
O       -0.70760000       0.80300000       0.70760000
C        0.05930000       0.99420000      -0.20010000
C        1.27050000       1.90080000      -0.13730000
C        1.23210000       2.97310000      -1.20580000
C        0.20860000       4.11650000      -1.38360000
C        1.21110000       4.31690000      -2.53450000
C        2.43380000       3.88640000      -1.65390000
C        2.92270000       2.86730000      -2.70110000
C        1.38530000       2.77710000      -2.76520000
H       -0.08610000       0.49630000      -1.18730000
H        1.32690000       2.33870000       0.86440000
H        2.16180000       1.27390000      -0.28970000
H       -0.81180000       3.82960000      -1.65930000
H        0.19180000       4.88380000      -0.60230000
H        1.22600000       5.08120000      -3.31220000
H        3.01240000       4.53850000      -0.99700000
H        3.42670000       3.27500000      -3.58280000
H        3.46080000       1.98840000      -2.33060000
H        0.75420000       2.15240000      -3.40000000
