20
Properties=species:S:1:pos:R:3 pbc="F F F"
C       -0.51840000       1.87080000       0.09610000
C       -0.02210000       0.43530000       0.04080000
C        1.18200000       0.07320000      -0.88410000
C        1.70220000      -0.86450000       0.23990000
O        3.07910000      -0.97150000       0.48020000
C        0.79130000      -0.10640000       1.24340000
O       -1.12580000      -0.47930000      -0.12860000
C       -1.76750000      -0.48350000      -1.31200000
N       -2.78600000      -1.21400000      -1.47190000
H        0.30910000       2.55300000       0.31070000
H       -0.97060000       2.18100000      -0.85160000
H       -1.27120000       1.97870000       0.88320000
H        0.97330000      -0.35590000      -1.86620000
H        1.84210000       0.93830000      -1.01060000
H        1.34680000      -1.88610000       0.08950000
H        3.42830000      -0.08810000       0.63980000
H        1.33700000       0.70090000       1.74350000
H        0.23320000      -0.68340000       1.98220000
H       -1.31970000       0.17280000      -2.06860000
H       -3.13890000      -1.10960000      -2.42110000
