21
Properties=species:S:1:pos:R:3 pbc="F F F"
C       -0.07460000       1.53960000       0.37490000
C       -0.06810000       0.08610000      -0.13120000
C       -1.41880000      -0.56670000      -0.10380000
C       -2.11780000      -1.01870000      -1.14580000
C       -3.45840000      -1.58970000      -0.75730000
C       -3.36170000      -1.70520000       0.79500000
C       -2.19070000      -0.75920000       1.18910000
C       -4.65400000      -1.33320000       1.47820000
O       -5.30140000      -2.05010000       2.19630000
H        0.92990000       1.97030000       0.32620000
H       -0.74080000       2.16190000      -0.23100000
H       -0.41170000       1.60150000       1.41440000
H        0.32660000       0.05570000      -1.15280000
H        0.62750000      -0.49690000       0.48910000
H       -1.79100000      -0.96320000      -2.17910000
H       -4.27560000      -0.91870000      -1.06420000
H       -3.67330000      -2.56000000      -1.21720000
H       -3.12000000      -2.73320000       1.07490000
H       -1.58180000      -1.18470000       1.99500000
H       -2.56140000       0.20600000       1.56550000
H       -4.98780000      -0.28880000       1.25880000
