15
Properties=species:S:1:pos:R:3 pbc="F F F"
C        1.06220000       0.81720000      -0.57470000
C        0.05170000      -0.10130000       0.07400000
O        0.54210000      -1.25780000       0.77010000
C       -0.11020000      -0.24990000       1.54470000
C        0.71170000       0.54920000       2.53610000
N        2.02360000       0.19630000       2.58960000
O        0.19270000       1.41980000       3.20240000
C       -1.12760000      -0.36910000      -0.73810000
N       -2.05430000      -0.55800000      -1.40180000
H        1.89880000       1.00140000       0.09970000
H        1.43660000       0.36600000      -1.49770000
H        0.59020000       1.77100000      -0.82640000
H       -1.09750000      -0.50960000       1.92050000
H        2.33990000      -0.63010000       2.10910000
H        2.60250000       0.61380000       3.30020000
