21
Properties=species:S:1:pos:R:3 pbc="F F F"
C       -0.39050000       1.29640000       0.36060000
C       -0.00960000      -0.11970000       0.06490000
C       -0.21040000      -0.79400000      -1.06950000
C        0.34970000      -2.19360000      -1.02690000
C        0.68010000      -2.40330000       0.48050000
C        0.73110000      -0.96900000       1.07740000
C       -0.40340000      -3.22100000       1.14620000
C       -0.26520000      -4.65930000       1.40050000
O       -0.12850000      -3.70970000       2.46130000
H        0.49340000       1.90180000       0.59990000
H       -0.90250000       1.76400000      -0.48490000
H       -1.05030000       1.35560000       1.23570000
H       -0.69050000      -0.38510000      -1.95280000
H       -0.35350000      -2.94940000      -1.40020000
H        1.24910000      -2.28250000      -1.65160000
H        1.62960000      -2.92680000       0.62200000
H        1.76530000      -0.61530000       1.19270000
H        0.28610000      -0.92880000       2.07920000
H       -1.41390000      -2.82200000       1.02760000
H       -1.14860000      -5.29470000       1.45150000
H        0.65360000      -5.16820000       1.11000000
