25
Properties=species:S:1:pos:R:3 pbc="F F F"
C       -0.02080000       1.62590000      -0.06170000
C        0.02020000       0.09660000       0.01370000
C       -1.37790000      -0.53420000       0.02300000
C       -1.40270000      -2.06930000       0.07410000
O       -0.74250000      -2.62170000      -1.07840000
C       -0.80250000      -2.68760000       1.35670000
C       -1.39720000      -4.10230000       1.38270000
C       -2.86670000      -3.87410000       0.97610000
C       -2.84150000      -2.64520000       0.02690000
H        0.98690000       2.05310000      -0.07350000
H       -0.53700000       1.96210000      -0.96750000
H       -0.55270000       2.04980000       0.79730000
H        0.58730000      -0.28520000      -0.84570000
H        0.57240000      -0.20750000       0.91200000
H       -1.94290000      -0.14810000       0.88180000
H       -1.91950000      -0.21690000      -0.87760000
H        0.19700000      -2.42530000      -1.00220000
H        0.29270000      -2.67160000       1.35730000
H       -1.13740000      -2.11700000       2.23300000
H       -0.89000000      -4.71720000       0.63270000
H       -1.29180000      -4.59950000       2.35100000
H       -3.31320000      -4.75610000       0.50960000
H       -3.46650000      -3.64930000       1.86510000
H       -3.56970000      -1.88990000       0.33610000
H       -3.06840000      -2.91170000      -1.00790000
