23
Properties=species:S:1:pos:R:3 pbc="F F F"
C       -0.09650000       1.62950000       0.16470000
C        0.02160000       0.11320000       0.06150000
C        1.13490000      -0.42720000      -0.89280000
C        1.47550000      -1.51400000       0.16200000
C        0.76730000      -0.62130000       1.22240000
O        0.90360000      -2.79440000      -0.03240000
C       -0.35380000      -2.87500000      -0.68360000
C       -1.47070000      -2.03740000      -0.05320000
C       -1.35200000      -0.51410000      -0.24920000
H        0.88070000       2.09210000       0.34010000
H       -0.50830000       2.05950000      -0.75640000
H       -0.75820000       1.92100000       0.98890000
H        0.85200000      -0.74570000      -1.89920000
H        1.96070000       0.28520000      -0.97830000
H        2.53670000      -1.70890000       0.33450000
H        1.48540000       0.04220000       1.71470000
H        0.17850000      -1.13050000       1.98890000
H       -0.25790000      -2.62400000      -1.75190000
H       -0.61920000      -3.93570000      -0.62960000
H       -2.42210000      -2.36930000      -0.48700000
H       -1.52030000      -2.28110000       1.01420000
H       -2.11210000      -0.03130000       0.37820000
H       -1.61170000      -0.26130000      -1.28680000
