23
Properties=species:S:1:pos:R:3 pbc="F F F"
C       -1.67900000      -0.51820000       2.26740000
C       -0.75610000      -0.75990000       1.09850000
N       -0.41200000       0.39750000       0.25760000
C        0.66370000      -0.31310000       0.97570000
C        1.48690000       0.48200000       1.95810000
C        2.15430000       1.68750000       1.32260000
N        0.99090000       0.61270000       3.34160000
C        2.19220000      -0.20230000       3.08150000
C        2.09410000      -1.68090000       3.37260000
H       -1.44830000       0.42260000       2.76340000
H       -2.71680000      -0.49650000       1.91510000
H       -1.58970000      -1.31990000       3.00780000
H       -0.96590000      -1.68920000       0.56570000
H       -0.41080000       0.14870000      -0.72760000
H        1.29110000      -0.96450000       0.36380000
H        1.39570000       2.38110000       0.94730000
H        2.79180000       2.21280000       2.04160000
H        2.78120000       1.39070000       0.47360000
H        1.24950000       1.52340000       3.71370000
H        3.14800000       0.24270000       3.35960000
H        1.12250000      -2.07680000       3.07010000
H        2.87600000      -2.23630000       2.84240000
H        2.21700000      -1.87030000       4.44450000
