18
Properties=species:S:1:pos:R:3 pbc="F F F"
C       -0.06630000       1.53340000       0.16770000
C       -0.03370000       0.01520000      -0.01470000
C        0.74700000      -0.45490000      -1.26510000
C        0.86500000      -1.98510000      -1.34890000
C       -0.15290000      -2.39590000      -2.39810000
O       -0.56600000      -3.47650000      -2.67870000
O       -0.57210000      -1.26130000      -3.07200000
C        0.01010000      -0.11520000      -2.54770000
N       -0.09940000       1.01980000      -3.07790000
H        0.94510000       1.93210000       0.30260000
H       -0.50300000       2.02820000      -0.70250000
H       -0.65200000       1.80010000       1.05250000
H        0.43650000      -0.45290000       0.85860000
H       -1.05580000      -0.38320000      -0.06220000
H        1.72160000       0.03880000      -1.27760000
H        1.85030000      -2.31320000      -1.69610000
H        0.66100000      -2.50560000      -0.41100000
H       -0.66480000       0.97640000      -3.92750000
