17
Properties=species:S:1:pos:R:3 pbc="F F F"
C       -0.00560000       1.46680000      -0.29520000
C       -0.01960000       0.03150000       0.24300000
C       -1.38660000      -0.60960000       0.13610000
C       -1.84790000      -1.29040000      -1.14000000
C       -0.97570000      -1.37600000      -2.27750000
N       -0.28690000      -1.42320000      -3.20520000
C       -1.56460000      -2.11510000       0.12550000
C       -0.42510000      -2.98700000       0.19050000
N        0.48540000      -3.69550000       0.26780000
H        0.98480000       1.91290000      -0.17110000
H       -0.25240000       1.49120000      -1.36090000
H       -0.72630000       2.09900000       0.23480000
H        0.71710000      -0.57510000      -0.29310000
H        0.28160000       0.02130000       1.29720000
H       -2.18000000      -0.07920000       0.65590000
H       -2.89740000      -1.20340000      -1.40090000
H       -2.44670000      -2.51450000       0.61490000
