20
Properties=species:S:1:pos:R:3 pbc="F F F"
C       -0.16110000       1.57870000       0.09520000
C       -0.17790000       0.03610000       0.02610000
C        0.38890000      -0.59160000       1.30390000
C       -1.61730000      -0.41250000      -0.21370000
O       -2.40960000      -0.59280000       0.67910000
C       -2.00970000      -0.62800000      -1.67860000
O       -3.39820000      -0.67800000      -1.89660000
C       -4.05080000      -1.77430000      -1.44180000
N       -5.30190000      -1.84640000      -1.57030000
H        0.86400000       1.93770000       0.22480000
H       -0.56500000       2.03670000      -0.81330000
H       -0.75800000       1.92620000       0.94370000
H        0.42520000      -0.27220000      -0.83890000
H       -0.24940000      -0.34870000       2.15690000
H        0.44030000      -1.68180000       1.22530000
H        1.39740000      -0.21630000       1.50080000
H       -1.62700000       0.19250000      -2.29300000
H       -1.50480000      -1.54520000      -2.02570000
H       -3.38790000      -2.53210000      -1.00730000
H       -5.63790000      -2.73270000      -1.19970000
