18
Properties=species:S:1:pos:R:3 pbc="F F F"
C        0.13800000       1.58750000       0.02380000
C       -0.00100000       0.05820000       0.00170000
O        0.67620000      -0.40040000       1.18050000
C       -1.47750000      -0.40750000       0.00870000
C       -2.27140000       0.03500000       1.23360000
O       -3.52560000      -0.63250000       1.17580000
C        0.65780000      -0.48920000      -1.19570000
C        1.18790000      -0.97040000      -2.16160000
H        1.19180000       1.86320000      -0.05020000
H       -0.40490000       2.03600000      -0.81160000
H       -0.25660000       1.98380000       0.96240000
H        0.76920000      -1.35680000       1.10870000
H       -1.97380000      -0.05690000      -0.90240000
H       -1.49660000      -1.50300000      -0.02850000
H       -1.71310000      -0.22790000       2.14280000
H       -2.40930000       1.12680000       1.23140000
H       -4.03570000      -0.37360000       1.94860000
H        1.66330000      -1.38630000      -3.01560000
