18
Properties=species:S:1:pos:R:3 pbc="F F F"
C       -0.02840000       1.66260000      -0.63250000
C       -0.04130000       0.23060000      -0.15820000
C        1.16270000      -0.65040000      -0.31260000
C        0.70590000      -0.20990000       1.06440000
O       -1.25560000      -0.46510000      -0.44200000
C       -2.34380000      -0.18660000       0.30420000
N       -2.35140000       0.67570000       1.24020000
C       -3.46780000      -0.98910000      -0.10130000
C       -4.43730000      -1.63460000      -0.39930000
H        0.96490000       2.09490000      -0.48230000
H       -0.26370000       1.71360000      -1.70080000
H       -0.75440000       2.26160000      -0.07890000
H        0.98260000      -1.68230000      -0.59070000
H        2.06080000      -0.21330000      -0.73480000
H        1.28360000       0.53540000       1.59950000
H        0.23230000      -0.95110000       1.69640000
H       -3.27310000       0.71730000       1.66940000
H       -5.29160000      -2.20750000      -0.66590000
