21
Properties=species:S:1:pos:R:3 pbc="F F F"
C       -0.73330000       1.17140000      -0.28760000
C       -0.56430000       0.11320000       0.78130000
O        0.31340000       0.15980000       1.61390000
C       -1.54670000      -1.05780000       0.73560000
C       -1.04220000      -2.21110000      -0.15660000
C        0.25350000      -2.82780000       0.34790000
C       -2.14930000      -3.21900000      -0.56950000
C       -1.96810000      -2.63900000      -1.98380000
O       -0.90870000      -1.76550000      -1.54280000
H        0.06340000       1.91270000      -0.21590000
H       -0.72950000       0.68520000      -1.26890000
H       -1.70680000       1.66420000      -0.17770000
H       -1.67650000      -1.43340000       1.75520000
H       -2.51710000      -0.72310000       0.35420000
H        0.10190000      -3.27600000       1.33560000
H        0.58920000      -3.60730000      -0.34140000
H        1.04140000      -2.07670000       0.44030000
H       -1.86550000      -4.26700000      -0.45870000
H       -3.12560000      -3.06030000      -0.10840000
H       -1.62300000      -3.34050000      -2.75190000
H       -2.82380000      -2.07800000      -2.37910000
