19
Properties=species:S:1:pos:R:3 pbc="F F F"
C       -0.12470000       1.49710000      -0.03200000
C        0.05000000       0.00410000       0.03970000
O       -1.21760000      -0.72440000      -0.01940000
C       -0.93600000      -1.40900000       1.22760000
C        0.47260000      -0.79350000       1.29550000
C        1.61110000      -1.43340000       0.46190000
O        2.88530000      -1.62790000       0.96440000
C        1.11760000      -2.12240000      -0.77670000
C        1.21690000      -0.61400000      -0.76760000
H        0.83380000       2.00520000       0.11520000
H       -0.51350000       1.78310000      -1.01600000
H       -0.82960000       1.84560000       0.72820000
H       -1.61210000      -1.07350000       2.02380000
H       -1.00810000      -2.49900000       1.13170000
H        0.80630000      -0.29990000       2.20720000
H        2.96730000      -2.54730000       1.24080000
H        1.90860000      -2.60600000      -1.34170000
H        0.14700000      -2.60210000      -0.83930000
H        1.83380000      -0.07850000      -1.48000000
