18
Properties=species:S:1:pos:R:3 pbc="F F F"
C        0.02370000       1.56700000      -0.11330000
C        0.01300000       0.05790000       0.00400000
C        1.29240000      -0.75210000      -0.15570000
C        0.61110000      -0.64490000       1.18480000
C        1.22050000       0.07160000       2.38830000
O        1.28980000      -0.92710000       3.41350000
C        0.52830000      -2.01030000       3.06550000
O        0.38210000      -2.97190000       3.76550000
N       -0.02010000      -1.76810000       1.82230000
H        0.94250000       1.99660000       0.29930000
H       -0.03870000       1.87590000      -1.16200000
H       -0.82200000       2.01610000       0.41830000
H       -0.88050000      -0.41550000      -0.39750000
H        1.24050000      -1.69880000      -0.68430000
H        2.22400000      -0.21130000      -0.29840000
H        2.22690000       0.45250000       2.20220000
H        0.58420000       0.89310000       2.73930000
H       -0.35950000      -2.56220000       1.30430000
