16
Properties=species:S:1:pos:R:3 pbc="F F F"
C        0.00780000       1.51300000      -0.06120000
C       -0.01610000       0.01610000       0.02760000
O        0.34190000      -0.70860000      -1.20030000
C       -0.26050000      -1.84820000      -0.51860000
C        0.66100000      -2.01320000       0.70420000
C        0.82740000      -0.74520000       1.07760000
C       -1.34270000      -0.84780000       0.01670000
C       -2.08270000      -1.10910000       1.23970000
N       -2.68300000      -1.30600000       2.20790000
H        1.02940000       1.86310000      -0.23760000
H       -0.62440000       1.86560000      -0.88000000
H       -0.35040000       1.95350000       0.87430000
H       -0.50470000      -2.69300000      -1.15900000
H        1.03440000      -2.93610000       1.12090000
H        1.38230000      -0.30740000       1.89400000
H       -2.01290000      -0.52170000      -0.78230000
