19
Properties=species:S:1:pos:R:3 pbc="F F F"
C        0.07260000       1.37850000      -0.26680000
C        0.08080000      -0.09440000       0.19320000
C        0.70650000      -0.22530000       1.51000000
C        1.20430000      -0.30390000       2.60130000
C       -1.32790000      -0.67620000       0.20590000
C       -1.99340000      -1.09740000      -1.07020000
C       -1.57810000      -2.15610000      -0.05530000
C       -0.49910000      -3.05070000      -0.35720000
C        0.39990000      -3.80900000      -0.61140000
H        1.08870000       1.78010000      -0.29350000
H       -0.36370000       1.46010000      -1.26660000
H       -0.51660000       1.99510000       0.41870000
H        0.67580000      -0.67680000      -0.52200000
H        1.65430000      -0.39080000       3.55910000
H       -1.97190000      -0.24020000       0.96450000
H       -3.05330000      -0.90950000      -1.19890000
H       -1.41120000      -1.05320000      -1.98430000
H       -2.38220000      -2.60070000       0.52360000
H        1.19510000      -4.47770000      -0.82950000
