15
Properties=species:S:1:pos:R:3 pbc="F F F"
O       -0.87690000       0.96170000       0.48990000
C        0.09490000       1.00070000      -0.21900000
C        1.32430000       1.85750000       0.05530000
C        1.35820000       2.48660000       1.47270000
N        2.73330000       2.17550000       1.88320000
C        3.21680000       1.22720000       0.99330000
N        2.52840000       1.01770000      -0.07340000
C        4.45440000       0.57610000       1.28030000
C        5.49080000       0.03820000       1.56430000
H        0.17460000       0.39400000      -1.14480000
H        1.34720000       2.62500000      -0.73460000
H        1.18230000       3.56470000       1.46510000
H        0.60770000       2.01530000       2.11830000
H        2.94580000       2.06030000       2.86310000
H        6.40910000      -0.44440000       1.79440000
