16
Properties=species:S:1:pos:R:3 pbc="F F F"
C       -0.02130000       1.47720000       0.08000000
C        0.03590000      -0.02240000      -0.00950000
C       -0.02790000      -0.68830000      -1.22050000
C        0.03500000      -2.09440000      -1.18200000
N        0.02100000      -2.84830000      -2.32030000
N        0.14710000      -2.76450000      -0.02980000
C        0.20300000      -2.01180000       1.06210000
O        0.31880000      -2.69040000       2.21570000
N        0.15420000      -0.68440000       1.15650000
H        0.88550000       1.85920000       0.55990000
H       -0.12260000       1.94020000      -0.90400000
H       -0.86510000       1.78430000       0.70600000
H       -0.11670000      -0.15290000      -2.15780000
H       -0.33350000      -2.44300000      -3.16940000
H       -0.12680000      -3.83650000      -2.19060000
H        0.34360000      -2.01730000       2.90940000
