19
Properties=species:S:1:pos:R:3 pbc="F F F"
C        0.00820000       1.54970000       0.12610000
C        1.54560000       1.54770000      -0.10750000
C        1.42680000       0.08440000      -0.62980000
C        2.41240000      -0.96390000      -0.17560000
O        2.84910000      -0.89910000       1.19040000
C        1.96780000      -1.95480000       0.81630000
C        0.55690000      -1.86130000       1.36370000
O        0.04410000      -0.54710000       1.32240000
C        0.01220000       0.01030000       0.02140000
H       -0.35950000       1.94590000       1.07430000
H       -0.54440000       2.01110000      -0.69660000
H        1.95360000       2.29070000      -0.79550000
H        2.10180000       1.57680000       0.83060000
H        1.34610000       0.05460000      -1.72090000
H        3.20530000      -1.23510000      -0.87270000
H        2.40540000      -2.95420000       0.82150000
H       -0.08520000      -2.56490000       0.80400000
H        0.54010000      -2.15910000       2.41730000
H       -0.77900000      -0.47010000      -0.57370000
