19
Properties=species:S:1:pos:R:3 pbc="F F F"
C       -0.19830000       1.50700000       0.02060000
C        0.05470000      -0.01060000       0.02530000
C        0.77250000      -0.49820000      -1.20800000
C        2.06980000      -0.84010000      -1.24060000
C        2.75370000      -1.35870000      -2.47170000
O        1.85380000      -1.85760000      -3.43610000
C        0.80310000      -0.95800000      -3.72150000
C        0.01040000      -0.54700000      -2.48150000
O       -1.15750000      -0.22220000      -2.56630000
H        0.74390000       2.06250000      -0.03060000
H       -0.81440000       1.79180000      -0.83520000
H       -0.72050000       1.81080000       0.93290000
H        0.63690000      -0.28820000       0.91070000
H       -0.90860000      -0.52770000       0.09320000
H        2.68640000      -0.74700000      -0.34780000
H        3.39300000      -0.56250000      -2.90220000
H        3.41970000      -2.18940000      -2.21360000
H        1.18200000      -0.03680000      -4.20250000
H        0.13010000      -1.45080000      -4.42600000
