12
Properties=species:S:1:pos:R:3 pbc="F F F"
O       -0.00320000       0.03460000      -0.18020000
C        0.05440000       1.20950000      -0.08570000
C       -0.98500000       2.37590000       0.01730000
N        0.14740000       3.26160000       0.39150000
C        1.19120000       2.27210000       0.02650000
C        2.23580000       2.05540000       1.01880000
N        3.06230000       1.86610000       1.80320000
C       -1.64300000       2.67560000      -1.25000000
N       -2.12930000       2.94150000      -2.26480000
H       -1.72920000       2.25220000       0.81100000
H        0.19480000       4.14060000      -0.11020000
H        1.65080000       2.41900000      -0.96200000
