15
Properties=species:S:1:pos:R:3 pbc="F F F"
C       -0.00330000       1.54820000       0.08990000
C        0.00070000       0.01890000       0.05710000
C       -1.41840000      -0.56210000      -0.09880000
C       -1.43230000      -2.05080000      -0.08790000
N       -1.72300000      -2.81680000      -1.10080000
O       -1.58800000      -4.08020000      -0.63120000
N       -1.20420000      -4.02290000       0.70540000
N       -1.11110000      -2.81290000       1.02760000
H        1.01210000       1.93950000       0.19950000
H       -0.42440000       1.96520000      -0.83140000
H       -0.59880000       1.92530000       0.92850000
H        0.62370000      -0.33770000      -0.77140000
H        0.44720000      -0.37640000       0.97620000
H       -2.05100000      -0.20430000       0.72220000
H       -1.87100000      -0.22170000      -1.03440000
