21
Properties=species:S:1:pos:R:3 pbc="F F F"
C       -0.34760000       1.48470000      -0.02860000
C       -0.01430000      -0.00250000      -0.06880000
C        1.33930000      -0.31770000      -0.82800000
C        1.94840000      -0.50230000       0.54070000
C        2.93330000      -0.16860000       1.36950000
C        2.41470000      -0.24680000       2.80250000
C        0.85580000      -0.12800000       2.65640000
O        0.40700000       1.19720000       2.88310000
C        0.62380000      -0.67940000       1.21900000
H        0.53610000       2.08800000       0.21190000
H       -0.69640000       1.81410000      -1.01360000
H       -1.12210000       1.70880000       0.70800000
H       -0.87490000      -0.55790000      -0.45180000
H        1.27580000      -1.24670000      -1.40400000
H        1.74960000       0.46650000      -1.47110000
H        3.93360000       0.16170000       1.11370000
H        2.69200000      -1.19210000       3.28930000
H        2.79000000       0.55730000       3.44600000
H        0.33550000      -0.72480000       3.41040000
H        0.90480000       1.77970000       2.29980000
H        0.29100000      -1.72380000       1.26980000
