17
Properties=species:S:1:pos:R:3 pbc="F F F"
C       -0.01500000       1.51130000       0.01060000
C        1.31510000       0.75250000      -0.00680000
C        0.01820000       0.02430000       0.00200000
C       -0.57590000      -1.03870000       0.94650000
C       -1.82680000      -1.03850000       0.01440000
C       -0.59460000      -1.02820000      -0.94240000
C        0.04230000      -2.10480000      -0.01010000
H       -0.28760000       2.02620000       0.92710000
H       -0.30570000       2.03640000      -0.89430000
H        1.89700000       0.77990000      -0.92330000
H        1.91510000       0.76970000       0.89810000
H       -0.56090000      -1.03770000       2.03800000
H       -2.43050000      -1.95050000       0.01530000
H       -2.44660000      -0.13910000       0.02560000
H       -0.60140000      -1.01490000      -2.03380000
H        1.13200000      -2.18050000      -0.02140000
H       -0.43550000      -3.08860000      -0.01090000
