13
Properties=species:S:1:pos:R:3 pbc="F F F"
N        0.12140000       1.26080000       0.08320000
C       -0.03220000      -0.08800000      -0.02440000
N       -1.07570000      -0.77450000       0.21620000
C       -0.77050000      -2.14770000      -0.16110000
C        0.75390000      -2.11870000      -0.53930000
O        1.08640000      -0.72130000      -0.51160000
C        1.60760000      -2.84950000       0.40510000
N        2.26020000      -3.44990000       1.14550000
H        1.06290000       1.58630000       0.23680000
H       -0.59100000       1.72080000       0.62770000
H       -0.96690000      -2.84110000       0.66140000
H       -1.37350000      -2.46750000      -1.01860000
H        0.94640000      -2.49510000      -1.54720000
