19
Properties=species:S:1:pos:R:3 pbc="F F F"
O        0.04740000       1.38330000      -0.08140000
C       -0.03970000      -0.02970000       0.02020000
C        0.41320000      -0.60020000       1.42690000
C       -0.91190000      -1.17820000       1.99520000
C       -1.58920000      -1.86080000       0.78740000
C       -3.00580000      -1.22250000       0.92890000
C       -2.90870000      -0.54800000      -0.47810000
C       -1.48450000      -0.45670000       0.11140000
C       -2.01710000      -0.19380000       1.56040000
H        0.97850000       1.62550000      -0.07460000
H        0.50400000      -0.51040000      -0.80550000
H        1.18680000      -1.36970000       1.33020000
H        0.81460000       0.21370000       2.04010000
H       -0.87440000      -1.62850000       2.98970000
H       -1.33900000      -2.80550000       0.29890000
H       -3.88800000      -1.66560000       1.39270000
H       -3.04620000      -1.19910000      -1.34760000
H       -3.44780000       0.39450000      -0.61180000
H       -2.25690000       0.79430000       1.95510000
