21
Properties=species:S:1:pos:R:3 pbc="F F F"
C       -0.05800000       1.46340000      -0.30190000
C        1.39790000       1.65270000       0.21210000
C        1.44270000       0.15700000       0.65040000
C        1.61870000      -0.08740000       2.14390000
O        1.39530000      -1.44600000       2.49810000
C        0.05240000      -1.78360000       2.71420000
O       -0.75050000      -1.83150000       1.56610000
C       -1.07080000      -0.56130000       1.01360000
C        0.00690000      -0.05070000       0.06410000
H       -0.80790000       2.02180000       0.26700000
H       -0.21240000       1.68120000      -1.36070000
H        2.12050000       1.91390000      -0.56390000
H        1.51000000       2.37210000       1.02900000
H        2.19510000      -0.43360000       0.12130000
H        2.64860000       0.14480000       2.43800000
H        0.95740000       0.56980000       2.73280000
H        0.05900000      -2.79720000       3.12140000
H       -0.39180000      -1.08020000       3.44410000
H       -2.01660000      -0.68470000       0.47370000
H       -1.25270000       0.16370000       1.82380000
H        0.02690000      -0.69960000      -0.81540000
