14
Properties=species:S:1:pos:R:3 pbc="F F F"
O       -0.67570000       0.64730000       0.23870000
C        0.36100000       0.69210000      -0.36940000
C        1.44670000       1.71640000      -0.08440000
N        2.81300000       1.32690000      -0.51760000
C        2.99950000       2.60650000      -1.25130000
C        1.51170000       2.94780000      -1.03250000
O        1.22880000       2.64240000      -2.42760000
C        2.56970000       2.41360000      -2.71750000
O        3.04620000       2.15350000      -3.76900000
H        0.60340000      -0.00730000      -1.19630000
H        1.36510000       2.04550000       0.95780000
H        3.47160000       1.17170000       0.23440000
H        3.86290000       3.22720000      -1.01720000
H        1.07630000       3.89610000      -0.72920000
