18
Properties=species:S:1:pos:R:3 pbc="F F F"
C        0.06040000       1.64410000       0.03840000
C        0.10210000       0.12790000       0.03890000
C        0.58310000      -0.70130000      -1.17450000
C        2.02550000      -0.18600000      -1.42050000
C        2.33410000      -0.70340000      -0.01340000
N        1.17230000      -0.52340000       0.89040000
C        1.18040000      -1.66740000      -0.09200000
C        1.07300000      -3.07200000       0.29440000
O        0.51980000      -3.92720000      -0.35620000
H        1.00570000       2.09210000      -0.27680000
H       -0.72870000       2.00080000      -0.63240000
H       -0.16160000       2.00930000       1.04600000
H       -0.84860000      -0.27150000       0.40540000
H       -0.07260000      -0.96700000      -1.99930000
H        2.54100000      -0.79570000      -2.16580000
H        2.17480000       0.87380000      -1.64400000
H        3.29410000      -0.85210000       0.46400000
H        1.56530000      -3.29200000       1.26820000
