21
Properties=species:S:1:pos:R:3 pbc="F F F"
C        0.10970000       1.40560000      -0.19180000
C        0.08620000      -0.07420000       0.01000000
C       -0.90960000      -0.86200000       0.80100000
C        0.57330000      -1.01000000       1.09690000
C        1.27490000      -1.77090000      -0.03170000
C        2.78320000      -1.57840000      -0.05220000
C        0.87950000      -3.21800000      -0.32690000
O        1.18300000      -3.54690000      -1.67110000
O        0.64880000      -0.88880000      -1.03460000
H        1.12370000       1.76010000      -0.40060000
H       -0.52810000       1.68600000      -1.03810000
H       -0.26610000       1.91940000       0.69760000
H       -1.45340000      -0.29930000       1.55400000
H       -1.47920000      -1.65710000       0.33020000
H        1.00840000      -0.79580000       2.06460000
H        3.24510000      -2.11510000       0.78440000
H        3.19130000      -1.97570000      -0.98470000
H        3.04050000      -0.51940000       0.02990000
H        1.45210000      -3.90340000       0.30750000
H       -0.18620000      -3.37370000      -0.10990000
H        0.76740000      -2.85860000      -2.20580000
