18
Properties=species:S:1:pos:R:3 pbc="F F F"
C       -0.08070000       1.56420000       0.04540000
C       -0.06140000       0.05910000       0.06830000
C        1.21560000      -0.71080000      -0.28220000
C        0.65350000      -0.77970000       1.10390000
O        1.29560000      -0.18560000       2.18350000
C       -0.26480000      -1.95790000       1.38880000
O       -1.28720000      -1.91710000       0.38200000
C       -1.30710000      -0.69430000      -0.24720000
N       -2.25090000      -0.28360000      -0.97810000
H        0.85570000       1.96350000       0.44350000
H       -0.22000000       1.93020000      -0.97530000
H       -0.90430000       1.95100000       0.65200000
H        1.15860000      -1.57960000      -0.93070000
H        2.09400000      -0.08830000      -0.41700000
H        2.16290000      -0.59140000       2.28440000
H        0.22560000      -2.93540000       1.32930000
H       -0.71500000      -1.84180000       2.38210000
H       -3.00890000      -0.96760000      -1.00300000
