19
Properties=species:S:1:pos:R:3 pbc="F F F"
C        0.06990000       1.58210000      -0.19090000
C        0.06170000       0.07110000      -0.07300000
C        0.35450000      -0.72230000      -1.34740000
C        0.28590000      -1.99960000      -0.97900000
C       -0.04440000      -1.92650000       0.49990000
C        0.77980000      -0.72860000       1.10220000
C       -0.39470000      -0.46750000       2.05830000
O       -0.45220000       0.80950000       2.65330000
C       -1.06850000      -0.74820000       0.69010000
H        1.04730000       1.92910000      -0.54690000
H       -0.67540000       1.90830000      -0.92640000
H       -0.14240000       2.06700000       0.76010000
H        0.56750000      -0.28820000      -2.31510000
H        0.42490000      -2.90230000      -1.55700000
H       -0.16320000      -2.83970000       1.08430000
H        1.84780000      -0.72650000       1.33690000
H       -0.55330000      -1.25000000       2.81390000
H       -1.29630000       0.88840000       3.10820000
H       -2.13540000      -0.77140000       0.44640000
