17
Properties=species:S:1:pos:R:3 pbc="F F F"
C        0.03620000       1.47470000       0.00710000
C        1.27730000       0.66330000       0.02270000
C        1.98210000       0.38260000       1.36600000
C        0.90200000      -0.34970000       2.11550000
C        0.60840000      -0.92740000       3.32510000
N       -0.65550000      -1.46670000       3.21090000
C       -1.17600000      -1.24810000       1.94830000
C       -0.21450000      -0.55110000       1.26470000
N       -0.06090000      -0.00630000      -0.04380000
H       -0.27330000       1.95780000       0.93060000
H       -0.26570000       1.98230000      -0.90470000
H        1.87120000       0.60130000      -0.88380000
H        2.87420000      -0.23370000       1.20050000
H        2.31940000       1.30490000       1.85330000
H        1.16570000      -1.02170000       4.24330000
H       -1.12630000      -1.97350000       3.93910000
H       -2.15810000      -1.59690000       1.67680000
