16
Properties=species:S:1:pos:R:3 pbc="F F F"
C        0.77970000       1.31890000      -0.46680000
C       -0.07690000       0.05210000      -0.38820000
N        0.52670000      -1.22310000      -0.73980000
C        1.72150000      -1.29560000      -1.10100000
O        2.24790000      -2.52140000      -1.40850000
C        3.59630000      -2.52190000      -1.83120000
C        3.77040000      -2.00310000      -3.19890000
N        3.90850000      -1.58510000      -4.26670000
H        1.64120000       1.27280000       0.20820000
H        1.14850000       1.50070000      -1.48180000
H        0.17790000       2.18420000      -0.17410000
H       -0.47480000      -0.05880000       0.62890000
H       -0.95980000       0.16760000      -1.02990000
H        2.43640000      -0.47070000      -1.20350000
H        4.23730000      -1.94420000      -1.15180000
H        3.92640000      -3.56310000      -1.79960000
