20
Properties=species:S:1:pos:R:3 pbc="F F F"
O       -0.24500000       1.36320000      -0.23390000
N       -0.07060000      -0.03290000      -0.32450000
C       -1.13090000      -0.65790000      -0.00180000
C       -2.48560000      -0.09590000       0.37400000
C       -3.49750000      -1.19480000      -0.01480000
C       -4.02630000      -1.13980000      -1.47680000
C       -3.02640000      -2.25710000      -1.88500000
C       -2.64640000      -2.46660000      -0.38890000
C       -1.19030000      -2.16880000      -0.01120000
H        0.60360000       1.69080000      -0.54940000
H       -2.50820000       0.09470000       1.45480000
H       -2.66630000       0.86420000      -0.11570000
H       -4.26830000      -1.32190000       0.74750000
H       -5.07180000      -1.44770000      -1.55960000
H       -3.91390000      -0.17920000      -1.98750000
H       -3.45780000      -3.12420000      -2.39030000
H       -2.18930000      -1.89510000      -2.48930000
H       -3.00560000      -3.41060000       0.02440000
H       -0.45250000      -2.60890000      -0.68680000
H       -0.97660000      -2.54460000       0.99930000
