19
Properties=species:S:1:pos:R:3 pbc="F F F"
C        0.50870000       1.60470000      -0.17540000
C        1.46440000       0.46980000       0.18290000
C        0.01750000       0.20320000      -0.07790000
O       -0.86510000      -0.22020000       0.96350000
C       -1.41400000      -1.26700000       0.12210000
C       -2.91180000      -1.08570000      -0.16260000
C       -2.92380000      -0.29010000      -1.44860000
C       -1.70600000      -0.11440000      -1.96300000
C       -0.62970000      -0.72780000      -1.10780000
H        0.22030000       2.28190000       0.62150000
H        0.58740000       2.06510000      -1.15490000
H        2.19580000       0.15390000      -0.55450000
H        1.79940000       0.40860000       1.21290000
H       -1.14640000      -2.25610000       0.50620000
H       -3.43200000      -2.04680000      -0.27230000
H       -3.38960000      -0.55780000       0.67130000
H       -3.84180000       0.08400000      -1.88910000
H       -1.48770000       0.42460000      -2.87810000
H        0.05360000      -1.39410000      -1.64030000
