17
Properties=species:S:1:pos:R:3 pbc="F F F"
C       -0.17180000       1.31570000       0.08510000
O        0.20370000      -0.05320000       0.09460000
C        0.73080000      -0.54450000      -1.10560000
C        2.10620000       0.02960000      -1.45440000
C        0.67260000      -2.08060000      -1.17320000
O       -0.69180000      -2.45560000      -1.11560000
C       -0.15730000      -2.09290000      -2.40780000
C       -0.18730000      -0.57110000      -2.40050000
O       -0.59730000       0.27350000      -3.14030000
H        0.69640000       1.98480000       0.01070000
H       -0.86160000       1.54180000      -0.73650000
H       -0.67370000       1.50150000       1.03700000
H        2.77450000      -0.07450000      -0.59410000
H        2.54930000      -0.49450000      -2.30700000
H        2.03280000       1.08740000      -1.71860000
H        1.42170000      -2.80020000      -0.86470000
H       -0.22970000      -2.81730000      -3.20980000
