18
Properties=species:S:1:pos:R:3 pbc="F F F"
C       -0.00440000       1.54670000       0.01060000
C        1.47180000       1.90040000       0.02620000
C        2.21030000       0.73270000       0.62260000
C        1.18180000      -0.32890000       0.96850000
C        0.03100000      -0.01150000      -0.03460000
C        0.48700000      -0.42600000      -1.41100000
C        1.64740000       0.10180000      -1.81440000
C        2.33790000       1.01650000      -0.87850000
H       -0.48210000       1.89350000       0.93440000
H       -0.55020000       1.96980000      -0.83860000
H        1.78400000       2.92560000       0.18710000
H        3.09020000       0.86000000       1.24200000
H        1.55140000      -1.35320000       0.85850000
H        0.83890000      -0.19540000       2.00120000
H       -0.91870000      -0.46680000       0.24980000
H       -0.10020000      -1.10690000      -2.01700000
H        2.09210000      -0.11070000      -2.78120000
H        3.27920000       1.44800000      -1.19900000
