23
Properties=species:S:1:pos:R:3 pbc="F F F"
C       -0.06810000       1.54250000      -0.04610000
C        0.03100000       0.02120000      -0.05720000
C        1.23540000      -0.58570000      -0.85650000
C        2.07010000      -0.45360000       0.45480000
C        0.71370000      -0.60900000       1.20160000
C        0.35320000      -2.10680000       1.32880000
C       -1.05360000      -2.33040000       1.90730000
C        0.52990000      -2.77300000      -0.02330000
C        0.94820000      -2.05710000      -1.06830000
H        0.87950000       2.02420000       0.21500000
H       -0.37130000       1.92180000      -1.02850000
H       -0.81660000       1.87490000       0.68230000
H       -0.94050000      -0.40330000      -0.32850000
H        1.57760000      -0.07420000      -1.75860000
H        2.83970000      -1.20940000       0.63060000
H        2.50150000       0.54100000       0.58420000
H        0.58860000      -0.09060000       2.15770000
H        1.06660000      -2.56480000       2.03250000
H       -1.82190000      -1.87190000       1.27670000
H       -1.28220000      -3.39880000       1.98290000
H       -1.13580000      -1.89860000       2.91070000
H        0.30670000      -3.83390000      -0.10460000
H        1.08900000      -2.49960000      -2.05000000
