19
Properties=species:S:1:pos:R:3 pbc="F F F"
O       -0.53810000       0.21310000       0.39180000
C       -0.26700000       1.35990000       0.16190000
C        1.14390000       1.91160000       0.00080000
C        1.65940000       2.55030000       1.32850000
C        2.58230000       1.31810000       1.37380000
O        2.13940000       0.87740000       0.07110000
C        1.23520000       2.74070000      -1.26070000
C        2.57240000       3.00500000      -1.90020000
C        1.59190000       2.07040000      -2.56430000
H       -1.05850000       2.14300000       0.07060000
H        2.16920000       3.50250000       1.17620000
H        0.93390000       2.64610000       2.13850000
H        3.65870000       1.51800000       1.39120000
H        2.33630000       0.58280000       2.14800000
H        0.50220000       3.54240000      -1.30500000
H        2.74230000       3.98090000      -2.34080000
H        3.44140000       2.55030000      -1.43910000
H        1.82300000       1.01220000      -2.52600000
H        1.08390000       2.39710000      -3.46440000
