18
Properties=species:S:1:pos:R:3 pbc="F F F"
C        0.03330000       1.56380000       0.07830000
C        0.04160000       0.04630000       0.02630000
C        0.68160000      -0.51370000      -1.25030000
C        0.84290000      -2.04290000      -1.13250000
O        1.46850000      -2.39110000       0.08950000
C        0.81810000      -1.81640000       1.21070000
O        0.78470000      -0.42280000       1.15620000
C       -0.45880000      -2.73750000      -1.28590000
N       -1.47380000      -3.27580000      -1.41040000
H        1.05320000       1.95470000       0.01350000
H       -0.55170000       1.97210000      -0.75110000
H       -0.40720000       1.90680000       1.01800000
H       -0.99100000      -0.33420000       0.10420000
H        0.08770000      -0.26020000      -2.13360000
H        1.68160000      -0.08420000      -1.36720000
H        1.50210000      -2.41540000      -1.92240000
H       -0.20440000      -2.22530000       1.29050000
H        1.41160000      -2.10030000       2.08060000
