23
Properties=species:S:1:pos:R:3 pbc="F F F"
C       -0.39490000       1.49970000       0.08720000
C       -0.00640000       0.02740000       0.02540000
C        1.12800000      -0.39790000      -0.96270000
C        1.88930000      -1.08230000       0.19740000
C        2.86410000      -0.14390000       0.96060000
C        1.78380000       0.06000000       2.07330000
C        2.10650000      -0.72730000       3.34260000
O        1.42620000       1.39150000       2.39930000
C        0.74140000      -0.68760000       1.20170000
H        0.47040000       2.14310000       0.25490000
H       -0.87210000       1.79570000      -0.85480000
H       -1.10360000       1.69130000       0.89930000
H       -0.90960000      -0.55520000      -0.18630000
H        0.79200000      -1.07990000      -1.74850000
H        1.67010000       0.42610000      -1.43850000
H        2.21960000      -2.11140000       0.05470000
H        3.80010000      -0.59480000       1.30270000
H        3.09640000       0.77690000       0.41820000
H        2.98390000      -0.30140000       3.84720000
H        1.25820000      -0.69610000       4.03380000
H        2.33360000      -1.77420000       3.11790000
H        2.09800000       1.74350000       2.99340000
H        0.13560000      -1.41740000       1.74410000
