17
Properties=species:S:1:pos:R:3 pbc="F F F"
O       -0.09600000       1.35910000      -0.02290000
C        0.05540000      -0.01930000      -0.04930000
C        1.10640000      -0.69810000      -0.91690000
C        0.72150000      -2.13000000      -0.59730000
C        0.40680000      -2.28330000       0.92740000
O       -0.72750000      -3.13540000       0.59320000
C       -0.83390000      -2.27560000      -0.57750000
C       -1.17670000      -0.88230000      -0.01220000
C       -0.20410000      -0.89080000       1.16950000
H        0.66780000       1.73650000       0.42750000
H        0.98900000      -0.44490000      -1.97610000
H        2.13000000      -0.45210000      -0.60830000
H        1.26570000      -2.95590000      -1.04820000
H        1.08320000      -2.71580000       1.66330000
H       -1.43310000      -2.69610000      -1.38360000
H       -2.17430000      -0.47180000       0.05020000
H       -0.46090000      -0.49110000       2.14050000
