23
Properties=species:S:1:pos:R:3 pbc="F F F"
C        0.15880000       1.58050000       0.19200000
C        0.21220000       0.06840000      -0.01120000
C        0.89360000      -0.35200000      -1.30840000
O        1.45290000       0.44800000      -2.02490000
C        0.82700000      -1.83610000      -1.65650000
C        1.72260000      -2.23620000      -2.81700000
C        3.26200000      -2.29260000      -2.60720000
C        3.29580000      -3.56410000      -3.49760000
C        1.77120000      -3.72850000      -3.25030000
H        1.16320000       2.00980000       0.17310000
H       -0.41370000       2.06230000      -0.60520000
H       -0.30870000       1.82700000       1.14950000
H        0.75500000      -0.41930000       0.81140000
H       -0.79160000      -0.37690000       0.01150000
H        1.06040000      -2.42290000      -0.75680000
H       -0.22550000      -2.06720000      -1.88290000
H        1.49920000      -1.59830000      -3.67690000
H        3.84440000      -1.42390000      -2.91920000
H        3.51430000      -2.52560000      -1.56640000
H        3.51140000      -3.32050000      -4.54180000
H        3.95050000      -4.38350000      -3.19200000
H        1.57300000      -4.39640000      -2.40470000
H        1.14180000      -4.03790000      -4.08890000
