19
Properties=species:S:1:pos:R:3 pbc="F F F"
C       -0.05260000       1.48620000       0.24550000
C        0.05280000       0.00020000       0.06310000
C        0.54550000      -0.69120000      -1.23250000
C       -0.39200000      -1.76930000      -0.65780000
C        0.34590000      -2.27990000       0.59820000
C        0.68560000      -0.86220000       1.19180000
C        2.15210000      -0.65980000       1.46510000
O        2.88320000       0.07380000       0.84470000
O       -1.22750000      -0.70520000      -0.11360000
H        0.94930000       1.91870000       0.30900000
H       -0.58450000       1.94060000      -0.59460000
H       -0.59570000       1.72550000       1.16620000
H        0.12090000      -0.21620000      -2.11760000
H        1.60980000      -0.89830000      -1.35470000
H       -0.93000000      -2.49310000      -1.26940000
H       -0.30820000      -2.85930000       1.25150000
H        1.22900000      -2.88030000       0.35920000
H        0.14560000      -0.71380000       2.13450000
H        2.54790000      -1.26330000       2.31490000
