19
Properties=species:S:1:pos:R:3 pbc="F F F"
C       -0.19010000       1.56120000       0.04680000
C        0.01150000       0.06520000       0.05630000
O       -1.13160000      -0.67820000      -0.27940000
C        1.33050000      -0.54880000      -0.27550000
C        0.80510000      -0.64200000       1.15730000
C        1.48300000       0.11610000       2.22990000
O        2.16220000       1.11100000       2.03890000
C        1.31330000      -0.39000000       3.65640000
O        1.98690000       0.42190000       4.56800000
H        0.69720000       2.08340000       0.40620000
H       -0.39940000       1.90090000      -0.97500000
H       -1.04420000       1.83290000       0.67460000
H       -1.36580000      -0.45980000      -1.18880000
H        1.33290000      -1.46820000      -0.84900000
H        2.18220000       0.10930000      -0.41060000
H        0.36790000      -1.58880000       1.45500000
H        0.23290000      -0.43700000       3.87560000
H        1.67810000      -1.43090000       3.69410000
H        2.40410000       1.10990000       4.02350000
