15
Properties=species:S:1:pos:R:3 pbc="F F F"
N        0.11680000       1.28590000       0.27240000
C       -0.01920000      -0.04760000      -0.01280000
N       -1.18950000      -0.58540000       0.09100000
C       -1.46700000      -1.90430000      -0.18040000
C       -0.64870000      -2.97870000      -0.17470000
C        0.79540000      -2.94280000       0.06710000
N        1.38150000      -3.88000000       0.70670000
N        1.53670000      -1.90960000      -0.55330000
C        1.20140000      -0.68240000      -0.56700000
H        1.02820000       1.64830000       0.49880000
H       -0.66780000       1.71680000       0.73740000
H       -2.52960000      -2.08220000      -0.33300000
H       -1.08180000      -3.96690000      -0.28780000
H        2.39160000      -3.71630000       0.69800000
H        1.88390000       0.00840000      -1.07270000
