17
Properties=species:S:1:pos:R:3 pbc="F F F"
C       -0.16820000       1.51810000       0.04980000
N       -0.09000000       0.06890000       0.06010000
C       -1.30580000      -0.69330000       0.42730000
C       -0.40260000      -1.60390000       1.26690000
O       -0.49750000      -2.67160000       1.78920000
C        0.73640000      -0.58000000       1.09820000
C        2.10550000      -1.11290000       0.65680000
C        3.06420000      -0.03670000       0.41900000
N        3.79800000       0.83770000       0.23770000
H        0.82280000       1.93800000      -0.14090000
H       -0.83450000       1.84450000      -0.75410000
H       -0.54660000       1.93380000       1.00210000
H       -2.01730000      -0.13980000       1.06360000
H       -1.85220000      -1.14730000      -0.40570000
H        0.84670000       0.02390000       2.01570000
H        2.49690000      -1.78270000       1.43070000
H        1.98910000      -1.69690000      -0.26150000
