16
Properties=species:S:1:pos:R:3 pbc="F F F"
O       -0.03170000      -0.03290000       0.35620000
C       -0.02730000       1.16160000       0.12520000
C       -1.31310000       1.90260000      -0.21340000
C       -1.17670000       3.38460000      -0.47850000
C        0.00820000       4.00420000      -0.41750000
C        1.29080000       3.31380000      -0.08860000
N        1.12280000       1.89510000       0.15630000
C       -2.37280000       4.08740000      -0.79630000
C       -3.41640000       4.62860000      -1.05980000
H       -1.75760000       1.39940000      -1.07990000
H       -2.01500000       1.72520000       0.60980000
H        0.07830000       5.06880000      -0.61200000
H        2.00600000       3.47100000      -0.91200000
H        1.74410000       3.79660000       0.79230000
H        1.94300000       1.35290000       0.38650000
H       -4.32760000       5.12110000      -1.29390000
