18
Properties=species:S:1:pos:R:3 pbc="F F F"
O       -0.07880000       1.37470000      -0.04840000
C        0.07260000      -0.03280000      -0.13200000
C        0.86780000      -0.41250000      -1.32120000
N        1.51960000      -0.69600000      -2.23260000
C        0.71210000      -0.61760000       1.12790000
C       -0.08760000      -0.67680000       2.46700000
C       -0.87860000      -1.89170000       1.89660000
C        0.60640000      -2.13340000       1.49010000
C        0.97840000      -1.70890000       2.94240000
H        0.79500000       1.76400000       0.07490000
H       -0.93980000      -0.41710000      -0.27850000
H        1.72590000      -0.20820000       1.22490000
H       -0.48460000       0.17110000       3.02490000
H       -1.28860000      -2.58310000       2.63670000
H       -1.60800000      -1.70880000       1.10590000
H        1.01390000      -2.96910000       0.92100000
H        1.99280000      -1.33400000       3.10250000
H        0.67030000      -2.39070000       3.73830000
