19
Properties=species:S:1:pos:R:3 pbc="F F F"
C        0.16840000       1.56780000       0.03870000
C        0.01390000       0.04330000       0.02990000
C        0.53700000      -0.56780000      -1.25950000
O        1.96140000      -0.35500000      -1.43070000
C        2.20320000      -1.76200000      -1.62050000
C        0.71560000      -2.10980000      -1.39210000
C        0.39210000      -3.00580000      -0.20350000
H        1.21770000       1.84370000      -0.09870000
H       -0.40860000       2.02910000      -0.77060000
H       -0.17810000       1.99630000       0.98380000
H        0.55210000      -0.38620000       0.88210000
H       -1.04300000      -0.23190000       0.14560000
H       -0.01140000      -0.13400000      -2.11010000
H        2.59660000      -1.98050000      -2.62170000
H        2.90210000      -2.16230000      -0.87350000
H        0.22780000      -2.50280000      -2.28820000
H        0.89890000      -2.67410000       0.70790000
H       -0.68360000      -3.03270000      -0.00040000
H        0.71510000      -4.03320000      -0.40390000
