14
Properties=species:S:1:pos:R:3 pbc="F F F"
C       -0.15690000       1.44850000      -0.02060000
N        0.00020000      -0.00640000      -0.01430000
C        0.13130000      -0.64130000       1.22010000
O        0.11120000      -0.05390000       2.27510000
C       -0.03330000      -0.76590000      -1.18730000
N       -0.25760000      -2.01900000      -1.17450000
C        0.26730000      -0.04360000      -2.49470000
O        0.17950000      -0.61710000      -3.54890000
H        0.76170000       1.96200000      -0.32260000
H       -0.97550000       1.74870000      -0.67920000
H       -0.39180000       1.74010000       1.00310000
H        0.26390000      -1.72520000       1.11060000
H       -0.18740000      -2.36550000      -2.13470000
H        0.59090000       1.01190000      -2.43770000
