17
Properties=species:S:1:pos:R:3 pbc="F F F"
C       -0.32960000       1.56480000       0.00940000
C        0.02180000       0.08390000      -0.02510000
C        0.69450000      -0.59020000      -1.23730000
C        2.14290000      -0.21790000      -1.39890000
C        2.75170000       1.04660000      -1.08440000
C        3.31950000       2.08080000      -0.85070000
C        1.75340000      -1.25540000      -0.33690000
C        1.15140000      -0.53620000       0.84710000
O        1.36160000      -0.55350000       2.02460000
H        0.51590000       2.18860000      -0.28270000
H       -1.16680000       1.78000000      -0.66280000
H       -0.63180000       1.84860000       1.02240000
H       -0.86720000      -0.50830000       0.23590000
H        0.16010000      -1.05770000      -2.05490000
H        2.59670000      -0.70170000      -2.26190000
H        3.80700000       2.99820000      -0.63010000
H        2.18590000      -2.24800000      -0.35440000
