16
Properties=species:S:1:pos:R:3 pbc="F F F"
N       -0.40260000       1.61900000       0.04670000
C        0.00130000       0.37570000      -0.32200000
O        1.10630000       0.09850000      -0.74780000
C       -1.06000000      -0.69510000      -0.13390000
C       -1.64220000      -0.91320000       1.20210000
O       -2.37550000      -0.21600000       0.18990000
C       -0.98290000      -1.82430000      -1.11730000
C       -0.16800000      -3.00890000      -0.84150000
O       -1.59510000      -3.05200000      -0.73300000
H        0.21910000       2.39290000      -0.11910000
H       -1.38190000       1.78360000       0.21510000
H       -2.01920000      -1.90470000       1.43770000
H       -1.30260000      -0.30280000       2.03640000
H       -1.14960000      -1.53820000      -2.15540000
H        0.25700000      -3.56960000      -1.67100000
H        0.37560000      -3.07400000       0.09860000
