13
Properties=species:S:1:pos:R:3 pbc="F F F"
N        0.01140000       1.09330000       0.14990000
H        0.13420000       0.15250000      -0.19070000
H        0.73450000       1.73040000      -0.15180000
C       -1.26180000       1.58970000       0.06340000
O       -1.37090000       2.92520000       0.06500000
C       -2.72330000       3.22490000       0.04020000
C       -3.14440000       4.60110000       0.03020000
O       -2.41980000       5.57620000       0.04030000
C       -3.43330000       2.05050000       0.02260000
C       -2.50120000       0.98530000       0.03610000
H       -4.25400000       4.69360000       0.01050000
H       -4.51000000       1.97240000       0.00000000
H       -2.69950000      -0.07400000       0.03180000
