15
Properties=species:S:1:pos:R:3 pbc="F F F"
N        0.19790000       1.36890000       0.28000000
C       -0.16790000      -0.01340000      -0.04890000
C       -1.69600000      -0.10540000      -0.24010000
N       -2.37340000       0.34430000       0.95410000
C       -3.27570000      -0.42540000       1.62370000
O       -3.65860000      -1.51980000       1.27100000
C        0.53260000      -0.53910000      -1.23740000
N        1.09110000      -0.90660000      -2.18050000
H        1.16710000       1.41760000       0.57840000
H        0.12190000       1.95250000      -0.54930000
H        0.10220000      -0.64110000       0.80730000
H       -1.98310000       0.49950000      -1.11050000
H       -2.00470000      -1.13490000      -0.42870000
H       -2.05390000       1.21030000       1.36110000
H       -3.63520000       0.07560000       2.54360000
