15
Properties=species:S:1:pos:R:3 pbc="F F F"
N       -0.01670000       0.93850000       1.08090000
C       -0.00060000      -0.00720000       0.24640000
C       -1.11680000      -0.85210000      -0.35550000
C        0.04210000      -1.74010000      -0.97360000
N        0.97630000      -0.69460000      -0.47820000
C        0.20270000      -3.03500000      -0.31300000
C        0.35010000      -4.08580000       0.25030000
C        0.02880000      -1.88590000      -2.42720000
C        0.00020000      -1.99610000      -3.62280000
H        0.92420000       1.27110000       1.29860000
H       -1.74820000      -1.37150000       0.36380000
H       -1.72390000      -0.34790000      -1.10740000
H        1.92800000      -0.87790000      -0.18880000
H        0.47630000      -5.01920000       0.74160000
H       -0.01890000      -2.09620000      -4.68010000
