18
Properties=species:S:1:pos:R:3 pbc="F F F"
N        0.00370000      -1.30300000      -0.21490000
C       -0.03560000      -0.14820000      -0.22510000
C       -0.07190000       1.31180000      -0.23280000
C        1.28430000       1.97520000       0.01860000
C        2.26860000       1.36590000       0.98070000
C        2.54990000       1.33880000      -0.50270000
C        1.17870000       3.47360000      -0.04940000
C        0.99410000       4.31100000       1.14560000
O        2.26090000       4.22740000       0.48360000
H       -0.47270000       1.63500000      -1.20270000
H       -0.79420000       1.63840000       0.52630000
H        2.85290000       2.05050000       1.58400000
H        1.99940000       0.43230000       1.46170000
H        2.47250000       0.38790000      -1.01810000
H        3.31810000       2.00480000      -0.87890000
H        0.79790000       3.86010000      -0.99840000
H        0.49100000       5.27280000       1.06420000
H        0.95370000       3.83800000       2.12520000
