23
Properties=species:S:1:pos:R:3 pbc="F F F"
C       -0.43420000       1.37400000       0.17200000
C       -0.09110000      -0.11230000       0.03240000
C        0.94470000      -0.55370000       1.05560000
O        0.47790000      -0.43180000       2.42110000
C        0.62990000      -1.85940000       2.68410000
C        1.62780000      -2.09470000       3.80990000
C       -0.71770000      -2.50840000       2.97380000
C        1.19580000      -2.07330000       1.24400000
O        0.58260000      -2.99450000       0.38110000
H        0.44700000       1.99980000      -0.00660000
H       -1.20760000       1.67160000      -0.54220000
H       -0.79720000       1.58600000       1.18150000
H       -1.00760000      -0.70560000       0.15030000
H        0.29790000      -0.32760000      -0.97070000
H        1.86570000       0.03000000       0.91310000
H        1.25110000      -1.67760000       4.74950000
H        1.80390000      -3.16610000       3.95510000
H        2.58400000      -1.61350000       3.58480000
H       -1.45140000      -2.28860000       2.19210000
H       -0.61870000      -3.59470000       3.06140000
H       -1.12080000      -2.11950000       3.91410000
H        2.25490000      -2.34080000       1.24350000
H       -0.35910000      -2.80130000       0.33560000
