15
Properties=species:S:1:pos:R:3 pbc="F F F"
N       -0.02270000       1.40020000       0.08900000
C       -0.05100000       0.00880000       0.04380000
C       -1.12660000      -0.84000000      -0.07180000
N       -0.58410000      -2.11940000       0.01520000
C       -1.30640000      -3.36650000      -0.06580000
C       -1.85550000      -3.63430000      -1.40520000
N       -2.29880000      -3.84930000      -2.44940000
C        0.75820000      -1.96960000       0.17300000
N        1.11390000      -0.70590000       0.19810000
H        0.90530000       1.75040000      -0.10900000
H       -0.70960000       1.84640000      -0.50280000
H       -2.18230000      -0.67840000      -0.20580000
H       -0.62730000      -4.17960000       0.20660000
H       -2.13160000      -3.37790000       0.65610000
H        1.42080000      -2.81770000       0.26630000
