16
Properties=species:S:1:pos:R:3 pbc="F F F"
N       -0.09170000      -1.14830000      -0.13380000
C       -0.02060000       0.00040000      -0.02480000
C        0.02640000       1.45800000       0.06210000
C       -0.26570000       2.07020000       1.47830000
C        0.97270000       1.53590000       2.22710000
C        1.99250000       1.55400000       1.37140000
C        1.45870000       2.10090000       0.03120000
C        1.02620000       3.56290000       0.26200000
C        0.00590000       3.54480000       1.11820000
H       -0.62660000       1.87860000      -0.70720000
H       -1.23430000       1.84770000       1.92200000
H        0.97320000       1.25320000       3.27020000
H        3.02530000       1.28970000       1.54810000
H        2.06820000       1.90640000      -0.84920000
H        1.52230000       4.41660000      -0.17830000
H       -0.53140000       4.38000000       1.54510000
