20
Properties=species:S:1:pos:R:3 pbc="F F F"
O       -0.14200000       1.40040000      -0.32420000
C       -0.07120000       0.02050000      -0.04640000
C       -1.45700000      -0.64320000       0.01250000
C       -1.37910000      -2.17370000       0.15480000
N       -2.69530000      -2.77850000      -0.00770000
C       -3.06510000      -3.17390000      -1.36430000
C       -2.72090000      -4.19780000      -0.33920000
C       -2.31500000      -0.04850000       1.11420000
O       -2.07320000       0.99740000       1.67550000
H       -0.64130000       1.78380000       0.40960000
H        0.51510000      -0.43590000      -0.85170000
H        0.46320000      -0.17840000       0.89760000
H       -1.98190000      -0.42130000      -0.93000000
H       -0.64680000      -2.56350000      -0.57540000
H       -1.00500000      -2.44140000       1.15130000
H       -4.09920000      -2.99800000      -1.64480000
H       -2.34030000      -3.00540000      -2.15960000
H       -1.76670000      -4.71010000      -0.45270000
H       -3.49860000      -4.78290000       0.14250000
H       -3.20660000      -0.64670000       1.38860000
