17
Properties=species:S:1:pos:R:3 pbc="F F F"
O       -0.62880000       0.35650000       0.14660000
C        0.46520000       0.53470000      -0.31520000
C        1.32570000       1.76230000      -0.02870000
O        2.64580000       1.30820000       0.23820000
C        3.58810000       1.99130000      -0.58800000
C        2.81370000       2.38400000      -1.84150000
C        1.43040000       2.74570000      -1.24920000
C        0.32600000       2.67910000      -2.19210000
C       -0.58370000       2.61520000      -2.97480000
H        0.96100000      -0.20780000      -0.97990000
H        0.90370000       2.27350000       0.84400000
H        3.97910000       2.87900000      -0.06750000
H        4.42170000       1.31060000      -0.77970000
H        3.25970000       3.21730000      -2.38820000
H        2.71890000       1.53360000      -2.52250000
H        1.48320000       3.76170000      -0.84050000
H       -1.39420000       2.55780000      -3.65870000
