19
Properties=species:S:1:pos:R:3 pbc="F F F"
O        0.28780000       1.37430000      -0.15690000
C        0.08490000      -0.03550000      -0.05770000
C        0.57410000      -0.55740000       1.29150000
C       -0.44470000      -0.83770000       2.12690000
C       -1.70790000      -0.63050000       1.43510000
C       -2.98670000      -0.36020000       1.71090000
C       -3.71800000       0.05820000       0.44590000
C       -2.56180000       0.38150000      -0.55020000
C       -1.40080000      -0.48750000      -0.04320000
H       -0.02610000       1.76700000       0.66560000
H        0.63740000      -0.44980000      -0.90550000
H        1.62620000      -0.56660000       1.55400000
H       -0.34550000      -1.11870000       3.16920000
H       -3.45990000      -0.39520000       2.68570000
H       -4.35670000      -0.75410000       0.06730000
H       -4.38230000       0.91450000       0.60940000
H       -2.83340000       0.19050000      -1.59160000
H       -2.28420000       1.43760000      -0.46990000
H       -1.43540000      -1.48560000      -0.50400000
