17
Properties=species:S:1:pos:R:3 pbc="F F F"
C       -0.38700000       1.47010000      -0.08940000
C       -0.06000000      -0.02210000       0.00650000
O        0.73810000      -0.18830000       1.17980000
C       -1.33150000      -0.90540000       0.11050000
N       -2.06960000      -0.61160000       1.31650000
C       -3.35510000      -0.15600000       1.30470000
O       -4.02840000       0.00430000       0.31060000
C        0.70610000      -0.45500000      -1.18280000
N        1.30720000      -0.83380000      -2.09410000
H        0.53620000       2.04910000      -0.14910000
H       -0.99990000       1.67460000      -0.96980000
H       -0.93670000       1.77190000       0.80400000
H        1.14960000      -1.06030000       1.15300000
H       -2.00010000      -0.72960000      -0.73450000
H       -1.02670000      -1.95960000       0.08970000
H       -1.56730000      -0.64180000       2.19000000
H       -3.72540000       0.04590000       2.32830000
