12
Properties=species:S:1:pos:R:3 pbc="F F F"
O       -0.42740000       0.16540000       0.24660000
C       -0.08850000       1.25240000      -0.12210000
N        1.21920000       1.74860000      -0.14090000
C        2.38430000       1.08300000       0.24850000
O        2.44460000      -0.05270000       0.64200000
C        3.56650000       1.92870000       0.12550000
C        4.57810000       2.58310000       0.03170000
C        5.79360000       3.36510000      -0.04980000
O        6.28080000       3.73580000      -1.08990000
H       -0.78800000       2.02260000      -0.50280000
H        1.33600000       2.69380000      -0.47960000
H        6.24650000       3.60040000       0.93280000
