21
Properties=species:S:1:pos:R:3 pbc="F F F"
C        0.00420000       1.40380000      -0.05530000
C        0.08690000      -0.10690000       0.19630000
C        0.84580000      -0.43680000       1.48560000
N       -1.24610000      -0.70520000       0.22500000
C       -1.72510000      -1.52410000      -0.74800000
O       -1.07760000      -1.86660000      -1.72880000
C       -3.13350000      -2.00870000      -0.54300000
C       -4.01350000      -2.01070000      -1.74920000
N       -3.49210000      -3.26530000      -1.21370000
H        1.00640000       1.83900000      -0.11710000
H       -0.52020000       1.61290000      -0.99150000
H       -0.52980000       1.91060000       0.75760000
H        0.58560000      -0.58290000      -0.65170000
H        0.91970000      -1.51810000       1.62980000
H        1.85800000      -0.02260000       1.45240000
H        0.34210000      -0.00840000       2.36090000
H       -1.85730000      -0.46190000       0.98940000
H       -3.57490000      -1.86610000       0.44060000
H       -5.08160000      -1.85730000      -1.62430000
H       -3.58060000      -1.62180000      -2.66610000
H       -2.67770000      -3.53030000      -1.77010000
