15
Properties=species:S:1:pos:R:3 pbc="F F F"
C        0.04330000       1.57950000      -0.06940000
C        0.06610000       0.06460000      -0.08850000
C        0.70110000      -0.70680000      -1.26310000
C        1.25600000      -1.67990000      -0.15120000
C        2.35410000      -0.67990000       0.12300000
N        1.04060000      -0.63290000       0.85230000
C        2.14590000      -0.15640000      -1.26840000
O        2.86880000       0.28490000      -2.11530000
H        1.02140000       2.00700000      -0.30950000
H       -0.67800000       1.95640000      -0.80210000
H       -0.25560000       1.94060000       0.91930000
H       -0.91730000      -0.34180000       0.16610000
H        0.19270000      -0.94230000      -2.19420000
H        1.23800000      -2.74840000       0.00950000
H        3.25270000      -0.77960000       0.71540000
