21
Properties=species:S:1:pos:R:3 pbc="F F F"
C       -0.28540000       1.46630000      -0.01060000
C        0.14640000      -0.00470000       0.07420000
C        0.83340000      -0.48530000      -1.17360000
C        0.08930000      -0.97490000      -2.37950000
C        1.03270000      -1.94030000      -1.68590000
C        2.47900000      -1.60490000      -2.09320000
C        2.27660000      -0.14510000      -1.57700000
C        0.59400000      -3.16690000      -1.11650000
C        0.24270000      -4.20710000      -0.62040000
H        0.57460000       2.12310000      -0.17930000
H       -0.98890000       1.62240000      -0.83490000
H       -0.77240000       1.78690000       0.91550000
H        0.81740000      -0.14030000       0.93260000
H       -0.72810000      -0.63820000       0.26670000
H       -0.96430000      -1.18410000      -2.22560000
H        0.33660000      -0.61640000      -3.37710000
H        3.21620000      -2.15670000      -1.50800000
H        2.70690000      -1.72950000      -3.15650000
H        2.39050000       0.65840000      -2.31190000
H        2.91200000       0.07860000      -0.71650000
H       -0.07190000      -5.12530000      -0.19080000
