14
Properties=species:S:1:pos:R:3 pbc="F F F"
C        0.17490000       1.47410000      -0.12560000
C       -0.10910000      -0.01210000       0.08720000
O        0.34750000      -0.82860000      -0.99470000
C        1.57570000      -1.37830000      -0.60710000
O        1.57610000      -1.44560000       0.81910000
C        0.62550000      -0.58550000       1.28600000
N        0.39550000      -0.30800000       2.49290000
H        1.24730000       1.66150000      -0.23710000
H       -0.33630000       1.82850000      -1.02420000
H       -0.18390000       2.03910000       0.73860000
H       -1.18460000      -0.17870000       0.19220000
H        1.66810000      -2.38950000      -1.01340000
H        2.42900000      -0.75970000      -0.92790000
H        1.03500000      -0.80490000       3.11430000
