19
Properties=species:S:1:pos:R:3 pbc="F F F"
O       -0.66870000       0.56760000       0.52780000
C        0.19480000       0.88840000      -0.24740000
C        1.22170000       1.97670000      -0.00300000
C        1.21980000       3.00730000      -1.11620000
C        1.95960000       2.74570000      -2.41980000
C        2.43000000       3.84810000      -1.50620000
C        1.94500000       5.27160000      -1.77760000
C        0.43980000       5.16170000      -1.64360000
C        0.05770000       3.94220000      -1.26000000
H        0.28990000       0.38940000      -1.23990000
H        1.02310000       2.42920000       0.97350000
H        2.20750000       1.49270000       0.03710000
H        2.58600000       1.86010000      -2.47520000
H        1.46090000       3.00430000      -3.34830000
H        3.37700000       3.70680000      -0.99780000
H        2.35930000       5.98480000      -1.05250000
H        2.24680000       5.63250000      -2.76960000
H       -0.22680000       5.98870000      -1.85990000
H       -0.96520000       3.62630000      -1.08530000
