18
Properties=species:S:1:pos:R:3 pbc="F F F"
C        0.01670000       1.49530000      -0.02140000
C       -0.00580000      -0.00070000      -0.09110000
C        0.57360000      -0.93480000      -1.16170000
C        0.05650000      -1.84960000      -0.05440000
N        0.57410000      -0.89690000       1.05000000
C       -0.79490000      -0.94100000       1.71170000
C       -1.21130000      -0.97440000       0.24010000
C       -2.50850000      -1.02760000      -0.37080000
C       -3.59710000      -1.06240000      -0.88380000
H        1.04760000       1.86130000      -0.06240000
H       -0.53540000       1.92410000      -0.86410000
H       -0.43880000       1.86130000       0.90420000
H        0.05050000      -0.97150000      -2.12000000
H        1.65940000      -0.90030000      -1.28590000
H        0.13670000      -2.93070000       0.06770000
H       -0.96350000      -1.84610000       2.30330000
H       -1.03820000      -0.04920000       2.29700000
H       -4.55770000      -1.09650000      -1.33530000
