18
Properties=species:S:1:pos:R:3 pbc="F F F"
O       -0.03150000       1.39780000      -0.04680000
C       -0.01140000      -0.00120000      -0.02160000
C       -0.41070000      -0.66140000      -1.30140000
C       -1.33750000      -0.72260000      -0.09320000
C       -1.48210000      -1.98410000       0.71100000
O       -1.48140000      -1.72880000       2.13390000
C       -0.42740000      -1.10770000       2.72230000
N        0.65890000      -0.61930000       2.29710000
C        1.04580000      -0.61160000       0.88390000
H       -0.15880000       1.69900000       0.86090000
H       -0.71310000      -0.00800000      -2.11120000
H        0.10470000      -1.56500000      -1.61000000
H       -2.21410000      -0.08400000      -0.13510000
H       -2.44210000      -2.47460000       0.53100000
H       -0.69440000      -2.70710000       0.47660000
H       -0.63710000      -1.05860000       3.79180000
H        1.30990000      -1.62220000       0.55210000
H        1.95750000      -0.01260000       0.79300000
