19
Properties=species:S:1:pos:R:3 pbc="F F F"
C       -0.16580000       1.59450000       0.12770000
C       -0.00030000       0.07700000       0.01120000
C        0.74760000      -0.41080000      -1.24890000
C        0.04930000       0.01590000      -2.55140000
N        2.15980000       0.03300000      -1.30040000
H        2.51970000       0.20910000      -0.36710000
H        2.51450000      -1.74310000      -1.70870000
H        2.25930000       0.89290000      -1.82800000
C        0.74160000      -1.96600000      -1.24510000
O       -0.23880000      -2.61530000      -0.99000000
O        1.91230000      -2.51340000      -1.58910000
H        0.79670000       2.11500000       0.06570000
H       -0.81550000       1.99950000      -0.65360000
H       -0.61520000       1.85330000       1.09080000
H        0.54440000      -0.29690000       0.88910000
H       -0.97350000      -0.42030000       0.03390000
H       -0.01010000       1.10590000      -2.62740000
H        0.59870000      -0.35800000      -3.42110000
H       -0.96240000      -0.39330000      -2.58400000
