17
Properties=species:S:1:pos:R:3 pbc="F F F"
C       -0.04870000       1.52270000      -0.01390000
C       -0.00890000       0.00730000       0.00910000
N       -1.25850000      -0.61010000      -0.43560000
C       -1.53790000      -1.48320000       0.44250000
O       -0.76090000      -1.63050000       1.55500000
C        0.32520000      -0.71510000       1.36160000
C        1.60460000      -1.27990000       0.73090000
N        1.18710000      -2.07480000      -0.44180000
C        1.29210000      -0.61250000      -0.57560000
H        0.89820000       1.94550000       0.33900000
H       -0.22860000       1.87980000      -1.03250000
H       -0.85530000       1.89640000       0.62350000
H       -2.39370000      -2.14860000       0.41790000
H        0.46440000      -0.11190000       2.26000000
H        2.55520000      -1.45510000       1.21920000
H        2.02870000      -2.48290000      -0.84600000
H        1.95710000      -0.15940000      -1.30140000
