18
Properties=species:S:1:pos:R:3 pbc="F F F"
C       -0.35560000       1.37010000      -0.20010000
C        0.05960000      -0.05180000       0.07990000
N        0.55830000      -0.53220000       1.14170000
O       -0.17300000      -0.81480000      -1.01840000
C        0.08680000      -2.23070000      -0.92750000
O       -1.05940000      -2.91900000      -0.49680000
C       -1.65510000      -3.61340000      -1.59120000
C       -0.65680000      -3.50210000      -2.70740000
C        0.35130000      -2.73010000      -2.32050000
H       -0.13930000       2.01770000       0.65110000
H        0.16700000       1.74780000      -1.08410000
H       -1.42730000       1.40930000      -0.41830000
H        0.66780000       0.19280000       1.84610000
H        0.88210000      -2.37160000      -0.19370000
H       -1.84170000      -4.65100000      -1.28360000
H       -2.62630000      -3.16860000      -1.85810000
H       -0.78390000      -3.98240000      -3.66890000
H        1.22180000      -2.43570000      -2.89010000
