12
Properties=species:S:1:pos:R:3 pbc="F F F"
N       -0.04510000       1.34330000       0.01030000
C       -0.02210000       0.06010000       0.00340000
N        1.13690000      -0.73360000      -0.00780000
N        1.22960000      -2.07410000      -0.01540000
C        0.11140000      -2.73420000      -0.01210000
C       -1.17160000      -2.08880000      -0.00100000
C       -1.23640000      -0.74000000       0.00650000
H        0.89610000       1.74070000       0.00670000
H        2.03270000      -0.26780000      -0.01070000
H        0.20170000      -3.81430000      -0.01840000
H       -2.07090000      -2.69510000       0.00130000
H       -2.17010000      -0.19130000       0.01510000
