21
Properties=species:S:1:pos:R:3 pbc="F F F"
C       -0.19580000       0.98680000      -1.87270000
C       -0.08040000      -0.15690000      -0.88530000
C        1.25880000      -0.63150000      -0.30340000
C        2.54110000       0.03480000      -0.61100000
O        3.59610000      -0.55220000      -0.68050000
C        0.17250000       0.02120000       0.57830000
C        0.38480000       1.39280000       1.19480000
C       -0.52310000      -0.95070000       1.52050000
O        0.19590000      -1.16930000       2.72160000
H        0.43360000       1.84110000      -1.61680000
H        0.08350000       0.65880000      -2.87910000
H       -1.23050000       1.34350000      -1.91500000
H       -0.73240000      -0.99170000      -1.13490000
H        1.38090000      -1.70640000      -0.19910000
H        2.49740000       1.13160000      -0.78210000
H        0.95620000       2.07340000       0.56270000
H       -0.58490000       1.86270000       1.39600000
H        0.90670000       1.29250000       2.15000000
H       -1.48940000      -0.53460000       1.82940000
H       -0.72500000      -1.89740000       0.99500000
H        1.05290000      -1.54120000       2.48480000
