19
Properties=species:S:1:pos:R:3 pbc="F F F"
C        0.78830000      -0.18760000      -1.33740000
N        0.04660000      -0.03450000      -0.08450000
C        0.67100000      -0.66190000       1.06730000
C        1.97310000       0.03730000       1.41510000
O        3.01310000      -0.47720000       1.74640000
C       -0.25640000      -1.03620000       2.29620000
C       -0.93640000      -2.10210000       1.40240000
C        0.59730000      -2.22010000       1.20000000
N        0.71230000      -2.12040000       2.71190000
H        0.82290000      -1.24760000      -1.60850000
H        0.25820000       0.34210000      -2.13340000
H        1.82660000       0.18290000      -1.31110000
H       -0.12980000       0.94780000       0.10260000
H        1.89930000       1.14850000       1.31130000
H       -0.70840000      -0.34950000       3.01480000
H       -1.37950000      -2.92860000       1.95690000
H       -1.52980000      -1.74830000       0.56440000
H        1.16110000      -2.95970000       0.63070000
H        1.62180000      -1.72610000       2.95820000
