17
Properties=species:S:1:pos:R:3 pbc="F F F"
O       -0.00460000       1.42280000      -0.05590000
C        0.00730000       0.01070000       0.01640000
C        0.63040000      -0.56610000       1.34420000
C       -0.53200000      -1.37610000       1.94520000
O       -1.52810000      -0.46530000       2.41710000
C       -2.16050000       0.12850000       1.24810000
C       -1.44640000      -0.51760000       0.05040000
C       -1.18920000      -1.90550000       0.65980000
O       -1.41100000      -3.01040000       0.25920000
H        0.90450000       1.73490000      -0.00540000
H        0.52380000      -0.40940000      -0.85780000
H        1.50960000      -1.18730000       1.14750000
H        0.90880000       0.24670000       2.02090000
H       -0.29490000      -2.09550000       2.72640000
H       -3.23020000      -0.11030000       1.25880000
H       -2.02780000       1.21210000       1.27730000
H       -1.98340000      -0.48750000      -0.89450000
