18
Properties=species:S:1:pos:R:3 pbc="F F F"
O       -0.01790000       1.36190000      -0.28270000
C        0.06520000      -0.00730000       0.05500000
C       -1.30990000      -0.57680000       0.27420000
C       -1.76280000      -2.04160000       0.12090000
C       -3.18820000      -2.02070000       0.65720000
C       -3.39710000      -0.83230000       1.57480000
C       -2.45740000       0.13390000       0.89170000
N       -2.43320000      -0.08700000      -0.59880000
C       -2.88880000      -1.52350000      -0.73170000
H       -0.72560000       1.42230000      -0.94020000
H        0.57820000      -0.58950000      -0.72950000
H        0.67180000      -0.08070000       0.96560000
H       -1.14020000      -2.91980000       0.02670000
H       -3.71630000      -2.95750000       0.78290000
H       -4.43370000      -0.47920000       1.57420000
H       -3.09460000      -1.03060000       2.60870000
H       -2.36850000       1.17170000       1.18850000
H       -3.33380000      -1.87020000      -1.65430000
