20
Properties=species:S:1:pos:R:3 pbc="F F F"
C       -0.10380000       1.43770000      -0.15840000
C       -0.01690000      -0.07570000      -0.03380000
O        1.02370000      -0.69560000      -0.17230000
N       -1.19050000      -0.70020000       0.28250000
C       -2.60320000      -0.30240000       0.11920000
C       -2.95850000      -1.78510000      -0.04650000
C       -2.13480000      -2.39350000      -1.15970000
C       -1.48470000      -2.12960000       0.17080000
C       -0.78320000      -3.13840000       1.02740000
H        0.89970000       1.85210000      -0.06110000
H       -0.49640000       1.71060000      -1.14470000
H       -0.76300000       1.87760000       0.59530000
H       -3.01610000       0.15350000       1.02570000
H       -2.80770000       0.34930000      -0.73870000
H       -3.83660000      -2.26140000       0.36690000
H       -2.35300000      -3.43640000      -1.36780000
H       -1.86240000      -1.80590000      -2.03270000
H        0.26700000      -3.21210000       0.73300000
H       -0.82240000      -2.85120000       2.08320000
H       -1.24910000      -4.12230000       0.91790000
