19
Properties=species:S:1:pos:R:3 pbc="F F F"
C       -0.43710000       1.45400000      -0.51660000
O       -0.63150000       0.06740000      -0.66490000
C       -0.78900000      -0.60130000       0.57180000
C       -0.90940000      -2.06810000       0.32520000
C        0.03180000      -2.90300000      -0.53560000
O       -1.06800000      -3.75220000      -0.99010000
C       -2.01260000      -2.92370000      -0.29930000
C       -1.74510000      -3.02770000       1.16350000
O       -1.23620000      -4.19300000       1.72510000
H       -0.31950000       1.87630000      -1.51730000
H       -1.29670000       1.93750000      -0.02570000
H        0.46480000       1.68040000       0.07410000
H        0.07690000      -0.39430000       1.22640000
H       -1.68250000      -0.22990000       1.10240000
H        0.44800000      -2.34470000      -1.37790000
H        0.81290000      -3.47540000      -0.02320000
H       -2.94880000      -2.69790000      -0.79740000
H       -2.46320000      -2.53470000       1.81400000
H       -1.07830000      -4.79400000       0.98340000
