17
Properties=species:S:1:pos:R:3 pbc="F F F"
C       -0.22630000       1.51410000      -0.02460000
C        0.12260000       0.06810000       0.07660000
O       -0.65480000      -0.80600000       0.89310000
C        0.75820000      -0.76160000       1.10360000
C        1.45920000      -1.63080000      -0.01700000
C        2.76910000      -2.34170000       0.06620000
O        2.70690000      -3.46010000       0.93600000
O        0.42480000      -2.18600000      -0.84230000
C        0.80450000      -0.82650000      -1.05040000
H        0.60830000       2.08630000      -0.44360000
H       -1.09480000       1.65910000      -0.67700000
H       -0.46650000       1.91800000       0.96230000
H        1.13120000      -0.53480000       2.09490000
H        3.08610000      -2.62350000      -0.94900000
H        3.53200000      -1.67610000       0.48480000
H        2.01600000      -4.04310000       0.60200000
H        1.12660000      -0.52350000      -2.04020000
