20
Properties=species:S:1:pos:R:3 pbc="F F F"
C       -0.12900000       1.63870000      -0.01730000
C        0.00050000       0.11100000       0.00500000
C       -1.38530000      -0.57630000       0.06340000
C       -2.15590000      -0.21450000       1.25170000
N       -2.75430000       0.07680000       2.19650000
C        0.77790000      -0.41410000      -1.20880000
C        2.27240000      -0.09720000      -1.17730000
C        3.03620000      -0.36280000      -2.46130000
O        2.81610000       0.32770000      -0.18410000
H        0.85850000       2.10440000      -0.00580000
H       -0.66110000       1.97490000      -0.91590000
H       -0.68290000       1.99820000       0.85430000
H        0.55950000      -0.17320000       0.90240000
H       -1.97640000      -0.31250000      -0.82280000
H       -1.27010000      -1.66650000       0.05180000
H        0.69900000      -1.50960000      -1.27840000
H        0.35120000      -0.03500000      -2.14780000
H        2.73030000       0.36100000      -3.22620000
H        4.10770000      -0.26510000      -2.28350000
H        2.80890000      -1.35810000      -2.85770000
