18
Properties=species:S:1:pos:R:3 pbc="F F F"
C       -0.42100000       1.50460000       0.00410000
C        0.02320000       0.04920000       0.09170000
C        0.63940000      -0.60310000      -1.21240000
N        1.91880000      -0.69690000      -0.47170000
C        3.07050000      -1.40600000      -0.16060000
C        3.18470000      -1.23290000       1.21240000
N        4.19430000      -1.69080000       2.06110000
N        2.10630000      -0.54610000       1.75180000
C        1.38880000      -0.26200000       0.68880000
H        0.36170000       2.12760000      -0.44000000
H       -1.32630000       1.60170000      -0.60440000
H       -0.64100000       1.89970000       1.00040000
H       -0.77430000      -0.57140000       0.51300000
H        0.21320000      -1.57730000      -1.46760000
H        0.68940000       0.03080000      -2.10230000
H        3.73520000      -1.83640000      -0.88930000
H        5.11660000      -1.67240000       1.64830000
H        4.18530000      -1.18420000       2.93640000
