15
Properties=species:S:1:pos:R:3 pbc="F F F"
C       -0.02900000       1.47820000       0.13530000
C        0.01900000      -0.02920000      -0.01120000
O        1.06240000      -0.64000000      -0.11450000
C       -1.29950000      -0.75310000      -0.01540000
O       -2.45620000       0.02690000       0.10760000
C       -1.37200000      -2.05520000      -0.79540000
C       -1.33470000      -2.08700000       0.70140000
H        0.98740000       1.86620000       0.20740000
H       -0.53060000       1.92940000      -0.72900000
H       -0.61620000       1.76050000       1.01400000
H       -2.68900000       0.36510000      -0.76370000
H       -2.31820000      -2.26200000      -1.28310000
H       -0.47680000      -2.34340000      -1.33350000
H       -0.41620000      -2.40210000       1.18130000
H       -2.25630000      -2.30030000       1.22960000
