16
Properties=species:S:1:pos:R:3 pbc="F F F"
N       -0.01040000      -0.96940000      -0.61030000
C        0.00890000       0.15690000      -0.35390000
C        0.03370000       1.57730000      -0.01620000
C        1.45320000       2.10950000       0.16820000
O        2.26710000       2.02160000      -1.02960000
C        2.58160000       3.42670000      -0.98590000
C        1.58470000       4.28700000      -1.77220000
O        0.69110000       4.34710000      -0.62230000
C        1.62980000       3.64170000       0.20650000
H       -0.46810000       2.15550000      -0.79700000
H       -0.52840000       1.72970000       0.91330000
H        1.95230000       1.59870000       1.00180000
H        3.65110000       3.63140000      -1.03710000
H        1.94380000       5.28840000      -2.03790000
H        1.12880000       3.80240000      -2.64080000
H        1.82860000       4.14020000       1.15620000
