15
Properties=species:S:1:pos:R:3 pbc="F F F"
C       -0.02360000      -1.19220000      -0.07520000
C        0.02390000       0.00830000      -0.00670000
C        0.05570000       1.42260000       0.09620000
N        0.27800000       2.31320000      -1.07400000
C        1.19900000       2.39770000       0.06940000
C        0.52180000       3.30990000       1.09360000
C       -0.67960000       2.28820000       1.15230000
C       -2.01190000       2.76510000       0.81540000
N       -3.07350000       3.14650000       0.56390000
H       -0.06510000      -2.25150000      -0.14110000
H        0.71720000       1.74450000      -1.79740000
H        2.25590000       2.19130000      -0.03920000
H        1.04200000       3.37000000       2.05000000
H        0.27790000       4.30910000       0.73070000
H       -0.70860000       1.77750000       2.11690000
