19
Properties=species:S:1:pos:R:3 pbc="F F F"
O       -0.79640000       0.90810000       0.49070000
C        0.10990000       1.09420000      -0.28320000
C        1.28710000       2.00640000      -0.06740000
C        1.22810000       3.31580000      -0.89960000
C        0.11820000       4.20820000      -0.40890000
C        1.39640000       4.14040000       0.37970000
C        1.42860000       2.86890000       1.20490000
C        0.86330000       2.64240000       2.57560000
C        2.35720000       2.57930000       2.34680000
H        0.11220000       0.59890000      -1.28410000
H        2.20470000       1.44980000      -0.29440000
H        1.69980000       3.45160000      -1.86410000
H       -0.02610000       5.11270000      -0.99120000
H       -0.79540000       3.78280000      -0.00240000
H        2.03030000       5.00490000       0.53760000
H        0.46500000       3.50320000       3.10330000
H        0.32660000       1.71860000       2.75020000
H        2.84300000       1.60880000       2.38020000
H        2.96900000       3.39400000       2.72150000
