19
Properties=species:S:1:pos:R:3 pbc="F F F"
O        0.02180000      -0.03180000       0.65630000
C        0.26460000       0.73990000      -0.24200000
C        1.21020000       1.88250000      -0.14580000
C        1.46500000       2.43690000       1.24680000
C        2.51080000       1.59140000       0.60790000
C        1.26020000       2.79990000      -1.34640000
C        0.17800000       3.89850000      -1.50340000
C        1.37660000       4.86310000      -1.56260000
O        2.30230000       3.79630000      -1.24840000
H       -0.22500000       0.62000000      -1.23610000
H        1.65350000       3.50220000       1.31050000
H        0.87150000       2.00070000       2.04170000
H        2.63510000       0.57440000       0.96110000
H        3.39580000       2.08440000       0.22430000
H        1.39040000       2.19860000      -2.25950000
H       -0.44770000       3.84030000      -2.39470000
H       -0.45230000       4.01910000      -0.62050000
H        1.57830000       5.29060000      -2.55250000
H        1.40890000       5.66310000      -0.81530000
