18
Properties=species:S:1:pos:R:3 pbc="F F F"
C        0.47360000       0.41440000      -1.40230000
C        0.01300000       0.08910000       0.01900000
O        0.11060000       1.21620000       0.88400000
C       -1.40840000      -0.46290000       0.00780000
C       -1.77370000      -1.91030000       0.11490000
N       -2.15460000      -0.88130000       1.19180000
C       -1.16070000      -1.50530000       2.14110000
C       -0.86960000      -2.60210000       1.09900000
O       -0.34230000      -3.67570000       1.13030000
H        1.48480000       0.82760000      -1.38110000
H        0.47300000      -0.48190000      -2.03080000
H       -0.18980000       1.15380000      -1.86750000
H        0.70430000      -0.64120000       0.44790000
H       -0.53420000       1.87370000       0.59890000
H       -2.06470000       0.08550000      -0.67070000
H       -2.49010000      -2.38410000      -0.54730000
H       -0.36470000      -0.83680000       2.47270000
H       -1.68100000      -1.92300000       3.00720000
