18
Properties=species:S:1:pos:R:3 pbc="F F F"
C        0.30360000       1.38510000       0.31000000
C        0.34850000      -0.12520000       0.07110000
C        0.50710000      -0.49060000      -1.41480000
O        1.70840000       0.10650000      -1.94200000
C        2.80600000      -0.66870000      -2.09930000
N        2.93350000      -1.92290000      -2.03740000
C        1.75520000      -2.73690000      -1.79630000
C        0.44040000      -2.00450000      -1.59220000
O       -0.62150000      -2.57500000      -1.52040000
H        1.21350000       1.86700000      -0.05620000
H       -0.54950000       1.83960000      -0.20530000
H        0.20650000       1.60330000       1.37720000
H        1.17640000      -0.57380000       0.63480000
H       -0.57290000      -0.60160000       0.42160000
H       -0.31710000      -0.05240000      -1.98700000
H        3.66430000      -0.03850000      -2.32450000
H        1.62140000      -3.44070000      -2.62740000
H        1.92370000      -3.36970000      -0.91330000
