20
Properties=species:S:1:pos:R:3 pbc="F F F"
C        0.01550000       1.48230000      -0.27160000
C       -0.13120000       0.00350000       0.11290000
C        0.74990000      -0.37480000       1.26990000
C        2.13790000      -0.84850000       1.15560000
N        1.11860000      -1.82830000       1.60220000
C        0.75910000      -1.55190000       3.05140000
C        1.80500000      -0.96740000       4.01270000
O        1.48350000       0.38650000       3.58760000
C        0.40570000      -0.09690000       2.75080000
H        1.04210000       1.71020000      -0.57530000
H       -0.64960000       1.73890000      -1.10130000
H       -0.23280000       2.13790000       0.56990000
H       -1.17820000      -0.21270000       0.36350000
H        0.11940000      -0.63880000      -0.73910000
H        2.50080000      -1.08010000       0.15830000
H        2.89770000      -0.48030000       1.83610000
H        0.06330000      -2.30210000       3.42170000
H        1.55920000      -1.11660000       5.07150000
H        2.85680000      -1.22700000       3.84740000
H       -0.55110000       0.38860000       2.95680000
