21
Properties=species:S:1:pos:R:3 pbc="F F F"
C        0.00350000       1.47690000       0.05840000
C       -0.00890000      -0.00860000      -0.02080000
C       -0.01710000      -0.87170000      -1.03990000
C       -0.00470000      -2.25530000      -0.35920000
C        0.00040000      -3.49940000      -1.21630000
C        1.07050000      -1.99220000       0.76040000
C        0.00550000      -0.95380000       1.20820000
O        0.09190000      -0.40920000       2.48810000
C       -1.06950000      -2.00980000       0.77130000
H        0.86420000       1.83450000       0.63670000
H        0.04300000       1.92960000      -0.93620000
H       -0.89070000       1.86610000       0.56510000
H       -0.02270000      -0.68830000      -2.10670000
H        0.88090000      -3.52560000      -1.86840000
H        0.01260000      -4.40590000      -0.60280000
H       -0.88810000      -3.54140000      -1.85660000
H        1.17640000      -2.82450000       1.46420000
H        2.04500000      -1.61160000       0.44630000
H       -0.68960000       0.13180000       2.64370000
H       -2.05250000      -1.64270000       0.46380000
H       -1.15720000      -2.84450000       1.47500000
