17
Properties=species:S:1:pos:R:3 pbc="F F F"
C       -0.02220000       1.57890000       0.00770000
C       -0.02430000       0.05050000       0.03980000
N       -1.37930000      -0.52380000       0.01870000
C       -1.99860000      -0.74250000      -1.21090000
N       -1.40510000      -0.45310000      -2.29790000
C       -2.07760000      -0.80520000       1.18010000
N       -3.27420000      -1.25870000       1.18640000
C       -1.36140000      -0.55250000       2.42110000
N       -0.87600000      -0.37760000       3.45630000
H        1.00870000       1.94540000       0.00840000
H       -0.51530000       1.94260000      -0.89660000
H       -0.52960000       1.99720000       0.88230000
H        0.48650000      -0.34540000      -0.83880000
H        0.48840000      -0.32190000       0.92910000
H       -2.99440000      -1.17010000      -1.10100000
H       -1.99710000      -0.69220000      -3.09090000
H       -3.60500000      -1.41170000       2.13510000
