23
Properties=species:S:1:pos:R:3 pbc="F F F"
C       -0.10590000       1.56410000      -0.00390000
C       -0.02940000       0.03240000       0.00350000
C       -1.45170000      -0.49180000      -0.21770000
C        1.15830000      -0.66820000      -0.77110000
C        2.12850000      -0.14720000       0.33640000
C        0.86970000      -0.67370000       1.09640000
C        0.97220000      -1.89170000       0.15260000
C        0.27100000      -3.19960000       0.03990000
C        1.77700000      -3.14250000       0.27290000
H        0.84640000       2.07290000       0.14420000
H       -0.51920000       1.91310000      -0.95740000
H       -0.78730000       1.90810000       0.78310000
H       -1.84820000      -0.11580000      -1.16840000
H       -1.52260000      -1.57730000      -0.23200000
H       -2.11670000      -0.12120000       0.57160000
H        1.32900000      -0.67670000      -1.85050000
H        3.03900000      -0.73270000       0.47540000
H        2.34240000       0.91890000       0.37260000
H        0.70660000      -0.68840000       2.17680000
H       -0.35520000      -3.53200000       0.86290000
H       -0.07740000      -3.52580000      -0.93580000
H        2.42500000      -3.43100000      -0.54940000
H        2.14660000      -3.43710000       1.25060000
