18
Properties=species:S:1:pos:R:3 pbc="F F F"
O        0.03730000      -0.02750000       0.23400000
C       -0.00380000       1.16450000       0.05590000
N       -1.17780000       1.86610000      -0.05210000
C       -1.35310000       3.31040000      -0.12100000
C       -0.03770000       3.97160000       0.21700000
C        0.03190000       5.45820000       0.42030000
C        0.19770000       4.52720000       1.59850000
C        1.08700000       3.24750000      -0.47120000
O        1.14950000       1.88010000      -0.04350000
H       -1.99080000       1.27590000       0.01650000
H       -1.67810000       3.60990000      -1.12930000
H       -2.13740000       3.62230000       0.57880000
H        0.90670000       5.98460000       0.05290000
H       -0.88990000       6.02510000       0.33980000
H       -0.61150000       4.46500000       2.31810000
H        1.18640000       4.41550000       2.03040000
H        0.96290000       3.27710000      -1.56310000
H        2.06160000       3.67660000      -0.22650000
