17
Properties=species:S:1:pos:R:3 pbc="F F F"
O        0.04850000       1.25360000      -0.05510000
C       -0.08260000      -0.15530000      -0.04820000
C       -1.57790000      -0.46570000      -0.05170000
N       -2.25990000      -0.02160000      -1.25740000
C       -2.20130000      -0.82860000      -2.46290000
C       -2.82510000      -2.14580000      -2.28220000
N       -3.29130000      -3.19070000      -2.12270000
C       -2.81190000       1.23100000      -1.34920000
O       -3.29690000       1.70020000      -2.35530000
H        0.97350000       1.48110000      -0.18480000
H        0.40400000      -0.61350000      -0.92330000
H        0.36580000      -0.60650000       0.85070000
H       -1.74060000      -1.54060000       0.07800000
H       -2.03680000       0.04040000       0.80340000
H       -2.72880000      -0.26520000      -3.23890000
H       -1.16840000      -0.97970000      -2.80320000
H       -2.77160000       1.76540000      -0.38510000
