18
Properties=species:S:1:pos:R:3 pbc="F F F"
C        0.63970000       1.43080000       0.27860000
C        0.07190000       0.03820000      -0.03650000
C        0.68580000      -0.61790000      -1.29780000
C        1.81620000      -1.49590000      -0.77880000
O        3.05030000      -0.74980000      -0.47570000
C        2.87770000      -0.90660000       0.88020000
O        3.57760000      -0.50030000       1.75170000
C        1.55040000      -1.68650000       0.72800000
N        0.30480000      -0.99160000       0.99950000
H        1.72960000       1.43490000       0.35590000
H        0.35720000       2.13900000      -0.50810000
H        0.22800000       1.80680000       1.22160000
H       -1.01210000       0.14340000      -0.16350000
H       -0.05330000      -1.26080000      -1.78580000
H        1.03760000       0.11190000      -2.03070000
H        2.05490000      -2.36560000      -1.39010000
H        1.56870000      -2.69150000       1.15620000
H        0.25200000      -0.62640000       1.94380000
