18
Properties=species:S:1:pos:R:3 pbc="F F F"
C       -0.00770000       1.65710000       0.08420000
C       -0.02470000       0.13620000       0.00700000
C        1.05150000      -0.48330000      -0.93400000
C        1.92940000      -0.75170000       0.31880000
C        0.66420000      -0.56400000       1.20080000
O       -1.38320000      -0.32590000      -0.15460000
C       -1.94460000      -0.22880000      -1.37020000
O       -3.07670000      -0.54900000      -1.58770000
H        1.00310000       2.02030000       0.29260000
H       -0.33970000       2.10740000      -0.85710000
H       -0.67060000       2.00020000       0.88400000
H        0.69230000      -1.41530000      -1.37780000
H        1.45720000       0.15530000      -1.72240000
H        2.42860000      -1.72020000       0.37070000
H        2.67480000       0.03040000       0.48170000
H        0.75560000       0.01020000       2.12550000
H        0.17010000      -1.51400000       1.41570000
H       -1.25610000       0.16240000      -2.14280000
