16
Properties=species:S:1:pos:R:3 pbc="F F F"
C       -0.07500000       1.52930000      -0.06610000
C        0.03370000       0.02310000       0.01260000
C        1.33000000      -0.69720000      -0.21730000
C        0.72400000      -0.68480000       1.18270000
C        1.40680000       0.08680000       2.30240000
C        0.10160000      -1.91190000       1.61720000
N       -0.39910000      -2.89160000       1.97660000
H        0.84300000       2.02870000       0.25360000
H       -0.26940000       1.83530000      -1.09950000
H       -0.89730000       1.90360000       0.55240000
H       -0.84790000      -0.49940000      -0.34720000
H        1.32570000      -1.62940000      -0.76950000
H        2.22800000      -0.10050000      -0.34340000
H        1.89420000       0.98520000       1.91900000
H        0.68730000       0.38810000       3.06950000
H        2.17170000      -0.53180000       2.78100000
