11
Properties=species:S:1:pos:R:3 pbc="F F F"
C        0.01180000       1.47890000       0.00230000
C       -0.00940000      -0.02460000       0.02360000
O       -0.10100000      -0.69610000       1.02650000
C        0.09630000      -0.71050000      -1.36130000
N        0.07050000      -2.05750000      -1.26560000
O        0.18980000      -0.06390000      -2.38730000
H        0.93250000       1.82860000      -0.47550000
H       -0.80780000       1.85120000      -0.62040000
H       -0.06760000       1.86790000       1.01730000
H       -0.00960000      -2.47690000      -0.35340000
H        0.13270000      -2.62360000      -2.09440000
