17
Properties=species:S:1:pos:R:3 pbc="F F F"
C        0.10560000       1.55720000       0.14130000
C       -0.11890000       0.05210000      -0.07960000
C        0.64150000      -0.49470000      -1.25250000
C        0.12600000      -0.96460000      -2.42960000
O        1.09350000      -1.36910000      -3.27770000
C        2.28250000      -1.16070000      -2.64320000
C        3.52310000      -1.50790000      -3.31540000
O        3.61870000      -1.98010000      -4.42590000
C        2.05550000      -0.62610000      -1.40100000
H        1.16320000       1.77820000       0.31670000
H       -0.21300000       2.13270000      -0.73310000
H       -0.45990000       1.91060000       1.00870000
H        0.16950000      -0.49260000       0.82800000
H       -1.18750000      -0.14150000      -0.22440000
H       -0.88640000      -1.07000000      -2.78790000
H        4.41660000      -1.29030000      -2.68900000
H        2.81540000      -0.36370000      -0.67970000
