14
Properties=species:S:1:pos:R:3 pbc="F F F"
N        0.24770000       1.37490000      -0.45830000
C        0.14100000       0.12420000      -0.22050000
N        1.22710000      -0.78710000      -0.18180000
C        1.09340000      -2.11100000       0.07230000
N       -0.03150000      -2.71060000       0.31040000
C       -1.13660000      -1.89560000       0.29120000
C       -1.12320000      -0.55310000       0.04760000
C       -2.38960000       0.21720000       0.05520000
O       -3.47250000      -0.28290000       0.27000000
H        1.21120000       1.66570000      -0.62210000
H        2.15110000      -0.41540000      -0.35570000
H        2.01840000      -2.68330000       0.06850000
H       -2.09020000      -2.37610000       0.48800000
H       -2.27380000       1.29590000      -0.15300000
