15
Properties=species:S:1:pos:R:3 pbc="F F F"
N       -0.01120000       1.35700000       0.26740000
C       -0.06820000       0.00120000       0.05380000
N       -1.22250000      -0.57600000       0.18480000
C       -1.44080000      -1.91700000      -0.08450000
N       -2.45270000      -2.40050000      -0.69240000
C       -0.49380000      -2.89270000       0.53950000
N        0.77850000      -2.90100000       0.42050000
C        1.48250000      -1.92480000      -0.25400000
C        1.17840000      -0.61510000      -0.38600000
H        0.86760000       1.76510000       0.53940000
H       -0.83650000       1.76270000       0.68200000
H       -3.03050000      -1.63580000      -1.05270000
H       -0.95090000      -3.67920000       1.14190000
H        2.44640000      -2.26920000      -0.62130000
H        1.93500000       0.04690000      -0.79770000
