19
Properties=species:S:1:pos:R:3 pbc="F F F"
O       -0.12750000       1.37600000       0.09310000
C       -0.05530000      -0.05460000       0.11080000
C       -1.48110000      -0.55450000      -0.12940000
C       -1.60620000      -0.47730000      -1.67860000
N       -0.22490000      -0.63520000      -2.15130000
C        0.66350000      -0.57130000      -1.12660000
N        1.89740000      -0.88320000      -1.01710000
C        2.23670000      -0.71400000       0.41360000
C        0.88530000      -0.59520000       1.19380000
H        0.75670000       1.71810000      -0.07960000
H       -1.57570000      -1.59260000       0.20190000
H       -2.23250000       0.05160000       0.37970000
H       -2.25060000      -1.26610000      -2.07960000
H       -2.01910000       0.48940000      -1.99020000
H        0.00100000      -1.05490000      -3.03700000
H        2.82840000      -1.57010000       0.75370000
H        2.87200000       0.17260000       0.55600000
H        0.93060000       0.05920000       2.06730000
H        0.56400000      -1.58840000       1.52290000
