16
Properties=species:S:1:pos:R:3 pbc="F F F"
O       -0.81040000       0.90390000       0.79120000
C        0.10400000       0.95250000       0.00900000
C        1.20560000       1.97870000       0.01950000
C        1.16310000       3.15040000      -1.01580000
O       -0.16540000       3.53090000      -1.30880000
C       -0.76630000       3.94590000      -0.06620000
C        0.39090000       4.09080000       0.90540000
C        1.65280000       4.02990000       0.15620000
N        1.31670000       2.94580000       1.16050000
H        0.20410000       0.20460000      -0.81180000
H        2.16290000       1.44640000      -0.05620000
H        1.72720000       3.06300000      -1.94290000
H       -1.26650000       4.90890000      -0.22180000
H       -1.50220000       3.20830000       0.26510000
H        0.28030000       4.72990000       1.77330000
H        2.51920000       4.67370000       0.23170000
