19
Properties=species:S:1:pos:R:3 pbc="F F F"
C       -0.05510000       1.54140000       0.06490000
C       -0.03430000       0.03500000       0.06040000
C       -1.29800000      -0.83210000       0.24720000
C       -0.27390000      -1.97300000       0.54340000
C        0.73000000      -0.87050000       1.08660000
C        1.98060000      -0.85260000       0.18980000
C        0.93810000      -0.71620000      -0.96620000
C        0.30930000      -2.10350000      -0.86340000
O        0.27200000      -3.01090000      -1.64760000
H        0.95570000       1.96310000       0.08270000
H       -0.55800000       1.92810000      -0.82910000
H       -0.59300000       1.92180000       0.94040000
H       -1.84850000      -0.52850000       1.14320000
H       -1.99560000      -0.97310000      -0.58560000
H       -0.53660000      -2.88020000       1.08230000
H        0.74240000      -0.68630000       2.16070000
H        2.56760000       0.05830000       0.33280000
H        2.64810000      -1.71990000       0.17040000
H        1.19050000      -0.33170000      -1.95230000
