20
Properties=species:S:1:pos:R:3 pbc="F F F"
C        0.84680000       1.59620000       0.05010000
C        0.10490000       0.25980000       0.08690000
C        0.48800000      -0.65960000      -1.09490000
O        0.71700000      -0.04680000      -2.32960000
C        1.73270000      -1.34120000      -0.54570000
O        2.68740000      -1.64040000      -1.21830000
C        1.55490000      -1.45330000       0.96220000
N        0.45910000      -0.53730000       1.29040000
C       -0.65670000      -1.14630000       1.99390000
H        1.93240000       1.44720000       0.06010000
H        0.59560000       2.14970000      -0.85790000
H        0.58230000       2.19420000       0.92590000
H       -0.97260000       0.44520000       0.09940000
H       -0.28790000      -1.44310000      -1.18030000
H        1.55950000      -0.40520000      -2.64970000
H        1.31770000      -2.49590000       1.21860000
H        2.49630000      -1.20550000       1.46910000
H       -0.30420000      -1.58880000       2.93120000
H       -1.39210000      -0.37870000       2.25180000
H       -1.17730000      -1.93930000       1.42370000
