14
Properties=species:S:1:pos:R:3 pbc="F F F"
N       -0.03300000      -1.22480000      -0.05370000
C        0.00220000      -0.07140000       0.00090000
C       -0.01570000       1.38030000       0.01030000
C        0.08480000       2.10930000       1.38600000
N        1.50530000       1.59920000       1.46560000
C        1.34960000       2.13350000       0.06030000
C        0.59070000       3.38460000       0.62550000
C       -0.30800000       4.15690000      -0.21790000
N       -1.02600000       4.76290000      -0.89190000
H       -0.75570000       1.77190000      -0.68860000
H       -0.61200000       2.05940000       2.22110000
H        2.07970000       2.23620000       2.02530000
H        2.15180000       2.11230000      -0.67550000
H        1.21580000       4.04190000       1.23390000
