12
Properties=species:S:1:pos:R:3 pbc="F F F"
O        0.11060000       1.30600000       0.06730000
C        0.07000000      -0.03290000       0.06400000
N        0.08770000      -0.73220000      -1.05020000
N        0.03320000      -2.03180000      -0.62240000
C        0.03090000      -3.11660000      -1.50010000
O        0.07530000      -3.04160000      -2.69440000
C       -0.01750000      -2.11660000       0.75000000
C        0.00420000      -0.84400000       1.23750000
H        0.15170000       1.59630000      -0.85420000
H       -0.01760000      -4.06390000      -0.93050000
H       -0.06400000      -3.07370000       1.24560000
H       -0.02190000      -0.51840000       2.26350000
