19
Properties=species:S:1:pos:R:3 pbc="F F F"
C       -0.16230000       1.53680000      -0.13050000
C        0.00660000       0.03750000      -0.00400000
C        1.34880000      -0.61790000      -0.20770000
O        2.42280000       0.23830000      -0.48140000
C        0.71130000      -0.63280000       1.17120000
C        1.32790000       0.21450000       2.26740000
C        0.13680000      -1.95160000       1.65380000
H        0.76270000       2.06980000       0.09350000
H       -0.44930000       1.80180000      -1.15390000
H       -0.94660000       1.90610000       0.53940000
H       -0.83490000      -0.52860000      -0.39780000
H        1.37740000      -1.55940000      -0.75860000
H        3.20920000      -0.12730000      -0.06310000
H        1.85350000       1.08370000       1.86860000
H        0.56400000       0.57030000       2.96850000
H        2.04970000      -0.37420000       2.84750000
H        0.89690000      -2.55290000       2.16800000
H       -0.68810000      -1.78990000       2.35850000
H       -0.25350000      -2.54840000       0.82290000
