17
Properties=species:S:1:pos:R:3 pbc="F F F"
C       -0.12120000       1.09690000       0.39740000
C       -0.04980000      -0.39340000       0.05600000
N        0.61510000      -0.66880000      -1.22670000
C        2.00550000      -0.85770000      -1.16650000
O        2.76260000      -1.04810000      -2.07540000
C       -0.09580000      -0.69820000      -2.45400000
C       -1.61110000      -0.58600000      -2.35780000
O        0.45770000      -0.82660000      -3.51550000
H        0.88200000       1.52880000       0.46220000
H       -0.67700000       1.65740000      -0.36000000
H       -0.61850000       1.24100000       1.36160000
H        0.50870000      -0.92240000       0.83440000
H       -1.04550000      -0.83750000       0.04620000
H        2.34140000      -0.81800000      -0.10910000
H       -1.93610000       0.31100000      -1.82420000
H       -1.99160000      -0.55660000      -3.37810000
H       -2.03990000      -1.45380000      -1.84530000
