16
Properties=species:S:1:pos:R:3 pbc="F F F"
C        0.22950000       1.40980000      -0.16640000
C        0.44760000      -0.07760000      -0.06850000
O        1.74950000      -0.54770000       0.25890000
C        0.70610000      -0.80610000       1.20330000
C        0.77010000      -0.12490000       2.56160000
C        1.98900000      -0.47000000       3.29380000
N        2.95220000      -0.73670000       3.87220000
C        0.27190000      -2.24600000       1.22870000
O       -0.28240000      -2.76220000       2.16360000
H        0.79550000       1.95650000       0.58970000
H        0.56040000       1.76130000      -1.14870000
H       -0.83370000       1.64990000      -0.06510000
H       -0.03620000      -0.65610000      -0.85930000
H        0.71300000       0.96120000       2.46770000
H       -0.09290000      -0.46330000       3.14470000
H        0.50490000      -2.79060000       0.28870000
