12
Properties=species:S:1:pos:R:3 pbc="F F F"
O       -0.07270000       1.31420000       0.00980000
C        1.24130000       1.70070000      -0.00040000
N        2.13100000       0.76750000      -0.01420000
C        1.36700000      -0.39740000      -0.01330000
C        0.00640000      -0.04810000       0.00150000
N       -1.00750000      -0.87430000       0.00660000
C       -0.60210000      -2.15640000      -0.00440000
C        0.74820000      -2.53350000      -0.01930000
N        1.76550000      -1.66070000      -0.02410000
H        1.40860000       2.76750000       0.00390000
H       -1.38060000      -2.91270000      -0.00110000
H        1.01040000      -3.58730000      -0.02760000
