19
Properties=species:S:1:pos:R:3 pbc="F F F"
C       -0.15520000       1.57060000      -0.11040000
C       -0.06570000       0.07630000      -0.03260000
C       -0.06770000      -0.78960000      -1.09440000
N        0.04030000      -2.08010000      -0.59670000
C        0.10350000      -2.04080000       0.76810000
N        0.14120000      -3.20870000       1.54080000
C        0.04360000      -0.71600000       1.16380000
C        0.07530000      -0.25070000       2.58560000
O        1.03650000      -0.96420000       3.38360000
H        0.69780000       2.06040000       0.37610000
H       -0.17350000       1.90580000      -1.15160000
H       -1.06000000       1.95690000       0.37470000
H       -0.12180000      -0.60750000      -2.15530000
H       -0.00450000      -2.92140000      -1.14410000
H        0.79840000      -3.89530000       1.18580000
H        0.40560000      -2.96450000       2.49030000
H        0.26620000       0.83170000       2.62710000
H       -0.87700000      -0.42260000       3.10330000
H        1.87840000      -0.89130000       2.91990000
