13
Properties=species:S:1:pos:R:3 pbc="F F F"
C        0.03720000       1.51240000       0.03130000
C       -0.05990000       0.02080000       0.02760000
C       -1.18150000      -0.70510000      -0.17640000
C       -1.11660000      -2.14940000      -0.15020000
O       -2.04480000      -2.92400000      -0.31740000
C        0.26070000      -2.63300000       0.11360000
N        1.31140000      -1.92060000       0.30440000
O        1.14920000      -0.53820000       0.26050000
H        0.73960000       1.84990000      -0.73750000
H       -0.94040000       1.95790000      -0.15710000
H        0.41320000       1.86680000       0.99630000
H       -2.12780000      -0.21200000      -0.35920000
H        0.42840000      -3.70630000       0.15550000
