17
Properties=species:S:1:pos:R:3 pbc="F F F"
C       -0.04230000       1.56950000       0.11440000
C        0.00440000       0.03350000       0.05320000
N        0.64820000      -0.47500000       1.26640000
C       -1.37290000      -0.49570000       0.01900000
N       -2.44360000      -0.92770000      -0.00580000
C        0.71800000      -0.46000000      -1.26790000
O        0.05400000      -0.02370000      -2.43930000
C        2.13270000      -0.08110000      -1.25560000
C        3.28170000       0.27460000      -1.26230000
H        0.97710000       1.96630000       0.11900000
H       -0.58060000       1.97760000      -0.74360000
H       -0.54660000       1.88420000       1.02910000
H        0.64790000      -1.49130000       1.27240000
H        1.61960000      -0.17480000       1.27110000
H        0.63970000      -1.55380000      -1.27680000
H        0.36190000       0.86470000      -2.64840000
H        4.30340000       0.56700000      -1.28050000
