17
Properties=species:S:1:pos:R:3 pbc="F F F"
O        0.01720000       1.42060000       0.09700000
C        0.00700000       0.00660000       0.03380000
C       -1.40610000      -0.47280000       0.01130000
C       -2.53700000       0.25110000       0.04760000
C       -3.79050000      -0.58130000      -0.07800000
C       -3.27530000      -2.02380000       0.06320000
O       -3.85270000      -2.93630000      -0.83600000
C       -1.76090000      -1.89410000      -0.15390000
O       -1.04370000      -2.82450000      -0.46000000
H        0.93250000       1.71410000       0.10330000
H        0.51940000      -0.37220000      -0.86550000
H        0.52780000      -0.44470000       0.89490000
H       -2.55790000       1.33110000       0.13240000
H       -4.54750000      -0.31000000       0.66470000
H       -4.25000000      -0.45410000      -1.06560000
H       -3.41880000      -2.35390000       1.10780000
H       -3.16200000      -3.58840000      -1.02330000
