20
Properties=species:S:1:pos:R:3 pbc="F F F"
C       -0.25230000       0.60760000       0.83640000
C        0.43430000      -0.63100000       0.23930000
C        0.63090000      -0.62180000      -1.27530000
C        0.13010000      -1.78030000      -2.06240000
N       -0.53610000      -0.46570000      -2.15360000
C        1.89280000       0.08630000      -1.80290000
N        1.95810000       0.01060000      -3.26030000
C        1.99070000       1.48560000      -1.32140000
N        2.11100000       2.59260000      -1.00790000
H        0.33140000       1.51750000       0.69050000
H       -1.23960000       0.76940000       0.39050000
H       -0.39900000       0.46740000       1.91160000
H        1.41080000      -0.77640000       0.71900000
H       -0.15820000      -1.51660000       0.49680000
H        0.64380000      -2.08570000      -2.96640000
H       -0.36520000      -2.57500000      -1.51090000
H       -1.39280000      -0.45140000      -1.60680000
H        2.75960000      -0.44660000      -1.38990000
H        1.10120000       0.40880000      -3.63730000
H        2.73870000       0.55790000      -3.60680000
