20
Properties=species:S:1:pos:R:3 pbc="F F F"
O        0.04600000       1.40750000      -0.04800000
C        0.03610000       0.00210000       0.01840000
C        0.65170000      -0.60230000       1.33810000
C       -0.52040000      -1.43410000       1.92390000
C       -1.13990000      -1.99100000       0.62500000
C       -1.39920000      -0.59390000       0.03520000
N       -2.07320000       0.21430000       1.09360000
C       -2.98480000      -0.51880000       1.98350000
C       -1.55230000      -0.39380000       2.35530000
H       -0.73400000       1.69090000       0.45270000
H        0.58540000      -0.35540000      -0.85790000
H        1.51720000      -1.23600000       1.12340000
H        0.98020000       0.20360000       1.99970000
H       -0.24250000      -2.16000000       2.68940000
H       -0.41850000      -2.55810000       0.03080000
H       -2.02540000      -2.61280000       0.76050000
H       -1.93490000      -0.52860000      -0.91260000
H       -3.70040000       0.12470000       2.48670000
H       -3.39720000      -1.47100000       1.66780000
H       -1.26670000       0.30460000       3.13800000
