19
Properties=species:S:1:pos:R:3 pbc="F F F"
C       -0.17020000       1.55940000       0.13310000
C       -0.01590000       0.05360000       0.00030000
C        1.13700000      -0.51980000      -0.94270000
C        1.97810000       0.40230000      -1.67720000
C        2.66810000       1.17200000      -2.29180000
C        1.73250000      -1.19870000       0.30910000
O        1.98650000      -0.18100000       1.27830000
C        0.64970000      -0.70080000       1.17290000
C        0.00480000      -1.25060000       2.40300000
H        0.76710000       2.00950000       0.46810000
H       -0.44050000       2.01150000      -0.82580000
H       -0.95510000       1.80690000       0.85630000
H       -0.96510000      -0.41670000      -0.27560000
H        0.71700000      -1.27020000      -1.62050000
H        3.28610000       1.84950000      -2.82690000
H        2.33870000      -2.09690000       0.35490000
H       -0.33710000      -0.44140000       3.05820000
H       -0.86500000      -1.86340000       2.14470000
H        0.71380000      -1.86450000       2.96470000
