16
Properties=species:S:1:pos:R:3 pbc="F F F"
O       -0.26740000       0.03760000      -0.01110000
C        0.00190000       1.21000000       0.02120000
C        1.38320000       1.78620000      -0.19860000
C        1.39230000       2.86340000      -1.28270000
C        0.82730000       4.28330000      -0.94020000
N        2.06910000       4.46820000      -0.06900000
C        2.62400000       3.82220000      -1.33750000
C        1.71180000       4.81810000      -2.09180000
O        1.74110000       5.65870000      -2.93360000
H       -0.78590000       1.97150000       0.23110000
H        1.71690000       2.23530000       0.74440000
H        2.06020000       0.96760000      -0.45960000
H        1.07800000       2.47020000      -2.25260000
H       -0.16560000       4.57050000      -0.60000000
H        2.33590000       5.45440000      -0.00780000
H        3.67780000       3.57310000      -1.44670000
