19
Properties=species:S:1:pos:R:3 pbc="F F F"
C       -0.21690000       1.43070000       0.20600000
O        0.37310000       0.17870000      -0.07020000
C        0.77920000      -0.51890000       1.08000000
C       -0.39270000      -1.25910000       1.81770000
C        0.09240000      -2.54320000       1.13240000
O       -0.40090000      -3.61360000       0.90070000
C        1.40160000      -1.89210000       0.67790000
C        1.80750000      -2.20320000      -0.76550000
O        2.07960000      -3.58570000      -0.90140000
H        0.47690000       2.09040000       0.74920000
H       -0.46560000       1.88830000      -0.75390000
H       -1.13680000       1.33260000       0.80100000
H        1.40500000       0.11760000       1.71890000
H       -0.27350000      -1.30240000       2.90510000
H       -1.41020000      -0.93830000       1.58140000
H        2.21660000      -2.17080000       1.35550000
H        1.01720000      -1.86850000      -1.44990000
H        2.72360000      -1.66880000      -1.03500000
H        1.28370000      -4.05630000      -0.62120000
