20
Properties=species:S:1:pos:R:3 pbc="F F F"
O        0.12140000       1.36240000       0.06820000
C        0.09300000      -0.04100000       0.03700000
C        0.26530000      -0.76880000       1.44080000
C       -1.16740000      -1.27860000       1.30280000
N       -2.01950000      -0.06820000       1.15310000
C       -1.33090000      -0.64300000      -0.03030000
C        1.03150000      -0.53980000      -1.03120000
C        1.20230000       0.22520000      -2.31940000
C        2.32550000       0.18000000      -1.31140000
H       -0.62660000       1.61560000       0.62760000
H        1.01670000      -1.56070000       1.40330000
H        0.45830000      -0.11010000       2.29100000
H       -1.59150000      -2.20060000       1.67990000
H       -2.99200000      -0.36950000       1.11970000
H       -1.88830000      -0.95010000      -0.90740000
H        1.05250000      -1.62360000      -1.10530000
H        1.30770000      -0.33910000      -3.23950000
H        0.66310000       1.16010000      -2.41100000
H        2.51790000       1.08550000      -0.74880000
H        3.20280000      -0.41570000      -1.53790000
