17
Properties=species:S:1:pos:R:3 pbc="F F F"
C       -0.04840000       1.46190000      -0.05820000
C       -0.09020000      -0.02780000      -0.06960000
O        0.78890000      -0.72420000      -0.91020000
C       -0.04210000      -1.96030000      -0.76070000
C        0.61110000      -2.75920000       0.32380000
C        0.45120000      -2.08840000       1.47950000
C       -0.40350000      -0.90730000       1.26210000
C       -1.13460000      -1.07060000      -0.05060000
O       -2.48720000      -1.00260000      -0.27360000
H        0.93350000       1.81500000       0.27340000
H       -0.23490000       1.86080000      -1.06040000
H       -0.80700000       1.86060000       0.62040000
H       -0.23700000      -2.40670000      -1.73410000
H        1.23760000      -3.62440000       0.15420000
H        0.93330000      -2.31670000       2.42260000
H       -0.86690000      -0.34470000       2.06420000
H       -2.92270000      -1.65210000       0.29170000
