16
Properties=species:S:1:pos:R:3 pbc="F F F"
O       -0.12120000       1.49840000       0.37960000
C       -0.33220000       0.17170000       0.76210000
C       -1.19140000      -0.55990000      -0.24820000
O       -1.54280000       0.01280000      -1.26510000
C       -1.63220000      -1.97980000      -0.01550000
C       -3.12800000      -2.19740000      -0.18510000
N       -2.21240000      -2.68230000      -1.18390000
C       -0.94030000      -2.88960000       0.94510000
O       -0.14390000      -2.54760000       1.78240000
H       -0.54330000       1.59420000      -0.48730000
H        0.61140000      -0.38430000       0.87080000
H       -0.81730000       0.10850000       1.74800000
H       -3.61140000      -2.95510000       0.42610000
H       -3.70990000      -1.30100000      -0.38040000
H       -2.17860000      -2.01890000      -1.95960000
H       -1.24490000      -3.94990000       0.81560000
