16
Properties=species:S:1:pos:R:3 pbc="F F F"
C        0.02180000       1.48540000       0.01060000
C        0.05000000      -0.02020000       0.01550000
N        0.02900000      -0.64700000      -1.16270000
C        0.05380000      -1.98680000      -1.14770000
N        0.09640000      -2.62190000      -2.36720000
N        0.07740000      -2.76520000      -0.05620000
C        0.09840000      -2.12860000       1.11110000
C        0.09290000      -0.74210000       1.21340000
O        0.11710000      -0.17270000       2.45670000
H        0.91740000       1.90740000       0.48520000
H       -0.02010000       1.84310000      -1.01850000
H       -0.85210000       1.87570000       0.54820000
H       -0.22030000      -2.07540000      -3.15150000
H       -0.17940000      -3.59060000      -2.35730000
H        0.11660000      -2.73400000       2.01460000
H        0.11280000       0.78510000       2.36880000
