21
Properties=species:S:1:pos:R:3 pbc="F F F"
C       -0.16610000       1.43970000      -0.11180000
C       -0.05520000      -0.04330000       0.04260000
C       -1.02130000      -0.93630000       0.24610000
C       -2.46250000      -1.21870000      -0.07550000
O       -3.11320000      -0.24220000      -0.85140000
C       -1.92290000      -2.53960000      -0.76080000
C       -0.59710000      -2.36890000       0.06140000
C        0.82230000      -2.24140000      -0.53340000
C        1.26650000      -0.80260000      -0.11400000
H        0.35940000       1.96550000       0.69660000
H        0.29380000       1.77570000      -1.05010000
H       -1.21100000       1.75790000      -0.10720000
H       -3.05270000      -1.47590000       0.81770000
H       -4.04970000      -0.45890000      -0.89000000
H       -2.50570000      -3.45370000      -0.61530000
H       -1.76500000      -2.35700000      -1.82690000
H       -0.61950000      -2.97840000       0.97290000
H        1.51580000      -3.01640000      -0.19340000
H        0.77680000      -2.29950000      -1.62690000
H        1.91320000      -0.33290000      -0.86510000
H        1.84490000      -0.81540000       0.82120000
