21
Properties=species:S:1:pos:R:3 pbc="F F F"
C       -0.21090000       1.19500000      -1.32530000
C        0.30680000      -0.12230000      -0.78700000
O        1.67490000      -0.38010000      -1.16280000
C        2.11530000      -0.52460000       0.21590000
C        2.59030000      -1.94770000       0.48210000
C        3.17970000       0.50740000       0.55240000
C        0.65730000      -0.23720000       0.73190000
C        0.42890000       0.90880000       1.58420000
C        0.23490000       1.85930000       2.29580000
H        0.38730000       2.03410000      -0.96230000
H       -0.17090000       1.18350000      -2.41900000
H       -1.25020000       1.35320000      -1.01890000
H       -0.34360000      -0.94340000      -1.11810000
H        3.48870000      -2.16080000      -0.10580000
H        2.83200000      -2.08600000       1.54150000
H        1.82170000      -2.67440000       0.20300000
H        2.81950000       1.52070000       0.36460000
H        3.47370000       0.43660000       1.60430000
H        4.06470000       0.33250000      -0.06780000
H        0.21200000      -1.12490000       1.19000000
H        0.06310000       2.69660000       2.92600000
