13
Properties=species:S:1:pos:R:3 pbc="F F F"
N       -0.04840000       1.25850000       0.49380000
C        0.02550000       0.04200000       0.15250000
N       -1.17100000      -0.69580000       0.10070000
C       -1.38790000      -1.99220000      -0.24380000
N       -0.58320000      -2.99840000      -0.23230000
C        0.71900000      -2.88870000       0.19730000
N        1.56700000      -1.92870000       0.11770000
C        1.30320000      -0.65100000      -0.33250000
O        2.08490000       0.00300000      -0.98200000
H        0.86670000       1.69610000       0.37820000
H       -1.98710000      -0.10020000       0.17770000
H       -2.42260000      -2.18180000      -0.52880000
H        1.08650000      -3.81610000       0.63930000
