19
Properties=species:S:1:pos:R:3 pbc="F F F"
N       -0.15220000      -1.08960000      -0.19540000
C       -0.08330000       0.06360000      -0.17140000
C        0.02870000       1.51880000      -0.13620000
C        1.48890000       1.99190000      -0.01720000
N        1.52620000       3.44380000       0.04650000
C        2.86420000       3.98790000       0.25690000
C        2.79950000       5.49320000       0.26180000
C        3.85340000       6.31880000      -0.33600000
O        2.62010000       6.10200000      -1.02430000
H       -0.42540000       1.92530000      -1.04810000
H       -0.54890000       1.90940000       0.70770000
H        1.91810000       1.59330000       0.90910000
H        2.07980000       1.56630000      -0.84730000
H        1.16150000       3.83560000      -0.81810000
H        3.23470000       3.63550000       1.22870000
H        3.59180000       3.66130000      -0.50760000
H        2.17720000       5.92680000       1.04490000
H        4.01440000       7.33250000       0.02720000
H        4.72580000       5.84040000      -0.77890000
