13
Properties=species:S:1:pos:R:3 pbc="F F F"
O       -0.14500000       1.37120000       0.05660000
C        0.02230000      -0.02450000      -0.03160000
C        0.78660000      -0.39800000      -1.24950000
N        1.37800000      -0.68810000      -2.19860000
C        0.69530000      -0.57370000       1.19610000
C        0.42340000      -1.64700000       1.97290000
O        1.34360000      -1.67520000       2.98240000
C        2.12600000      -0.59770000       2.75800000
N        1.79740000       0.09470000       1.71850000
H        0.69010000       1.72880000       0.38890000
H       -0.97820000      -0.45910000      -0.12960000
H       -0.31180000      -2.43250000       1.96330000
H        2.92950000      -0.42370000       3.45590000
