17
Properties=species:S:1:pos:R:3 pbc="F F F"
C       -0.04770000       1.42520000      -0.22900000
N        0.11830000      -0.01300000      -0.06040000
C        1.47410000      -0.52440000      -0.05000000
C        0.66680000      -0.46820000       1.21030000
C        0.98040000       0.31000000       2.50780000
C        0.56910000      -0.94680000       3.33860000
C        0.15810000      -1.64410000       2.02140000
O       -0.34660000      -2.69430000       1.75160000
H        0.75700000       2.02330000       0.22790000
H       -0.07700000       1.64910000      -1.29940000
H       -1.00150000       1.73380000       0.20940000
H        1.62760000      -1.47900000      -0.54630000
H        2.29920000       0.18480000      -0.12360000
H        2.01600000       0.63170000       2.63050000
H        0.32430000       1.16850000       2.67160000
H        1.39140000      -1.45340000       3.85170000
H       -0.25040000      -0.80920000       4.04860000
