20
Properties=species:S:1:pos:R:3 pbc="F F F"
O        0.28650000       1.15480000      -0.21270000
C       -0.04160000      -0.04580000       0.41870000
C       -1.46960000      -0.45860000       0.03890000
O       -2.12400000       0.25860000      -0.70570000
N       -1.92060000      -1.61860000       0.56980000
C       -3.23240000      -2.18480000       0.28110000
C       -3.13730000      -3.61270000      -0.20370000
C       -3.02020000      -4.74430000       0.79260000
C       -4.29340000      -4.55340000       0.00710000
H       -0.51560000       1.38670000      -0.71280000
H        0.65210000      -0.85140000       0.12760000
H        0.02070000       0.04930000       1.51530000
H       -1.29630000      -2.15630000       1.15130000
H       -3.86580000      -2.14120000       1.17800000
H       -3.68490000      -1.53500000      -0.47150000
H       -2.58060000      -3.72930000      -1.12940000
H       -2.38220000      -5.58540000       0.54630000
H       -3.04230000      -4.49860000       1.85020000
H       -5.16290000      -4.17820000       0.53690000
H       -4.52640000      -5.26140000      -0.77970000
