17
Properties=species:S:1:pos:R:3 pbc="F F F"
O       -0.07840000      -0.03930000       0.11250000
C        0.00800000       1.15850000       0.03780000
C        1.30470000       1.93070000      -0.05110000
C        1.35140000       2.81940000      -1.30850000
C        2.57420000       3.73610000      -1.31530000
C        2.64900000       4.88160000      -2.34450000
O        2.65240000       5.86850000      -1.26100000
C        2.55540000       4.89070000      -0.30530000
O        2.46280000       5.02710000       0.87290000
H       -0.90590000       1.79900000       0.02580000
H        1.37850000       2.57410000       0.83620000
H        2.13680000       1.22100000      -0.03130000
H        1.36470000       2.19200000      -2.20730000
H        0.44050000       3.42970000      -1.36400000
H        3.49740000       3.15330000      -1.24510000
H        3.56280000       4.95300000      -2.93680000
H        1.76790000       5.01170000      -2.97720000
