17
Properties=species:S:1:pos:R:3 pbc="F F F"
N       -0.30080000       1.18770000       0.19610000
C       -0.11910000      -0.04320000      -0.03940000
O        1.08130000      -0.69890000       0.02590000
C        0.86000000      -2.11430000       0.08300000
C       -0.60330000      -2.30850000      -0.38160000
C       -1.56630000      -3.00310000       0.55170000
C       -2.57500000      -2.19540000       0.87250000
C       -2.43420000      -0.84440000       0.21180000
N       -1.11240000      -0.93090000      -0.42150000
H        0.57020000       1.61690000       0.50030000
H        1.58580000      -2.60200000      -0.57130000
H        1.01430000      -2.46130000       1.11170000
H       -0.62250000      -2.77290000      -1.37830000
H       -1.44360000      -4.03440000       0.85880000
H       -3.42080000      -2.45040000       1.49930000
H       -3.22680000      -0.67360000      -0.52980000
H       -2.45150000       0.00300000       0.90560000
