17
Properties=species:S:1:pos:R:3 pbc="F F F"
C        0.24610000       1.56840000      -0.31960000
C        0.14510000       0.13370000      -0.10260000
C        0.04750000      -1.05130000       0.08670000
C       -0.08120000      -2.47810000       0.29600000
N       -0.33050000      -2.93560000       1.68780000
C       -1.26260000      -3.98220000       1.22460000
C       -1.40890000      -3.22140000      -0.12800000
C       -2.58840000      -2.38120000      -0.23180000
N       -3.53930000      -1.73120000      -0.32850000
H        1.03460000       1.81030000      -1.04040000
H       -0.69670000       1.97320000      -0.70270000
H        0.47620000       2.09020000       0.61560000
H        0.75920000      -3.00240000      -0.18510000
H        0.49070000      -3.25640000       2.18890000
H       -0.81590000      -4.97360000       1.06680000
H       -2.16590000      -4.08580000       1.83050000
H       -1.31890000      -3.82940000      -1.02900000
