20
Properties=species:S:1:pos:R:3 pbc="F F F"
C       -0.10790000       1.61420000       0.22960000
C       -0.02750000       0.09140000       0.00830000
C        0.76870000      -0.66050000       1.10520000
C        2.23600000      -0.28590000       1.13850000
C        2.75440000       0.82170000       2.04260000
C        3.06870000      -0.62190000       2.34250000
O        2.41050000      -1.26730000       3.39310000
C       -1.37700000      -0.47540000      -0.09800000
N       -2.44170000      -0.91990000      -0.17040000
H        0.89570000       2.04340000       0.23830000
H       -0.68560000       2.09300000      -0.56500000
H       -0.59050000       1.84040000       1.18490000
H        0.46450000      -0.09240000      -0.95650000
H        0.31090000      -0.47720000       2.08120000
H        0.67540000      -1.73690000       0.92220000
H        2.74560000      -0.39420000       0.18350000
H        3.54560000       1.47210000       1.68540000
H        2.02970000       1.29990000       2.69360000
H        4.08740000      -0.96580000       2.16370000
H        2.77450000      -0.93840000       4.22150000
