25
Properties=species:S:1:pos:R:3 pbc="F F F"
C       -0.35010000       1.55230000       0.10600000
C       -0.02960000       0.04370000       0.07780000
C        0.79750000      -0.34180000       1.32160000
C       -1.36930000      -0.72090000       0.15140000
C        0.67370000      -0.38250000      -1.25030000
C        1.33060000       0.61900000      -2.26300000
C        2.56310000       0.71990000      -1.31670000
C        2.18450000      -0.79000000      -1.35870000
C        2.02980000      -0.61740000      -2.89660000
H        0.54990000       2.17230000       0.10530000
H       -0.95470000       1.84180000      -0.76010000
H       -0.92200000       1.80310000       1.00670000
H        0.23870000      -0.11270000       2.23620000
H        1.01830000      -1.41440000       1.32970000
H        1.74870000       0.19380000       1.37510000
H       -2.00960000      -0.47710000      -0.70360000
H       -1.20550000      -1.80410000       0.14790000
H       -1.91780000      -0.46700000       1.06500000
H        0.02950000      -1.10390000      -1.76590000
H        0.83950000       1.43570000      -2.79490000
H        3.51190000       0.99120000      -1.78980000
H        2.44060000       1.25060000      -0.37410000
H        2.68500000      -1.60960000      -0.84030000
H        1.38970000      -1.33740000      -3.41410000
H        2.94830000      -0.41980000      -3.45590000
