17
Properties=species:S:1:pos:R:3 pbc="F F F"
O       -0.76830000       0.99580000       0.96780000
C       -0.08700000       1.04350000      -0.02440000
C        1.27280000       1.72070000      -0.07390000
C        1.38710000       2.76230000      -1.19660000
C        2.63390000       3.65920000      -1.15790000
O        2.79150000       4.14090000      -2.49130000
C        2.47500000       3.07890000      -3.36910000
C        1.50130000       2.17560000      -2.60850000
O        0.97360000       1.17970000      -3.03000000
H       -0.41360000       0.58730000      -0.98050000
H        1.45420000       2.17960000       0.90290000
H        2.03030000       0.93990000      -0.22940000
H        0.50150000       3.41410000      -1.20040000
H        2.53650000       4.52520000      -0.50070000
H        3.51600000       3.07700000      -0.84240000
H        2.03280000       3.47600000      -4.28750000
H        3.36270000       2.48520000      -3.64480000
