12
Properties=species:S:1:pos:R:3 pbc="F F F"
O       -0.06600000       0.00620000      -0.23980000
C       -0.01560000       1.17850000      -0.03970000
O       -1.09090000       1.96410000       0.21930000
C       -0.64200000       3.29920000       0.45550000
O        0.63870000       3.40730000      -0.11520000
C        1.21930000       2.11060000      -0.02730000
C        2.01800000       1.91090000       1.17960000
C        2.65720000       1.75490000       2.18420000
H       -1.31530000       3.99710000      -0.04610000
H       -0.62620000       3.47560000       1.54020000
H        1.81810000       1.94090000      -0.92620000
H        3.23190000       1.61120000       3.06640000
