23
Properties=species:S:1:pos:R:3 pbc="F F F"
C       -0.78530000       1.28070000       0.10280000
C        0.02790000      -0.00130000      -0.00970000
C        1.28350000       0.00510000      -0.93070000
C        2.12700000      -0.63800000       0.21440000
O        2.46950000      -1.99370000       0.00550000
C        3.26990000       0.22250000       0.77170000
C        2.56270000       1.31240000       1.59680000
C        1.36160000       0.57510000       2.23240000
C        0.91760000      -0.46890000       1.19170000
H       -0.16170000       2.14200000       0.36570000
H       -1.27550000       1.51140000      -0.84980000
H       -1.56840000       1.19340000       0.86460000
H       -0.64220000      -0.81770000      -0.29650000
H        1.21340000      -0.61040000      -1.83130000
H        1.61730000       1.00830000      -1.21620000
H        3.14150000      -2.02620000      -0.68420000
H        3.87990000      -0.41260000       1.42530000
H        3.92320000       0.62780000      -0.00970000
H        3.21820000       1.77340000       2.34120000
H        2.21430000       2.11840000       0.93990000
H        1.69390000       0.05420000       3.13780000
H        0.56010000       1.25550000       2.53560000
H        0.57630000      -1.39590000       1.65570000
