21
Properties=species:S:1:pos:R:3 pbc="F F F"
C        0.08730000       1.53670000       0.12490000
C       -0.07440000       0.02280000      -0.05200000
C       -1.50430000      -0.46680000      -0.02480000
C       -2.64940000       0.11200000      -0.90310000
C       -3.58660000      -0.52880000       0.14740000
C       -3.27080000      -2.04280000       0.17620000
C       -2.39800000      -1.95740000       1.40940000
C       -1.74900000      -1.99900000       0.04350000
C       -2.45830000      -0.41050000       1.24140000
H        1.14470000       1.81820000       0.13800000
H       -0.39310000       2.08970000      -0.68850000
H       -0.35860000       1.87640000       1.06610000
H        0.38750000      -0.28510000      -1.00110000
H        0.48600000      -0.49870000       0.73600000
H       -2.68530000       1.20540000      -0.85650000
H       -2.72590000      -0.21770000      -1.94480000
H       -4.61390000      -0.20100000       0.30140000
H       -3.86670000      -2.87210000      -0.18190000
H       -2.30470000      -2.61480000       2.26340000
H       -1.17240000      -2.79190000      -0.41650000
H       -2.42000000       0.35580000       2.01230000
