20
Properties=species:S:1:pos:R:3 pbc="F F F"
C        0.72230000       1.50820000       0.34730000
C       -0.08810000       0.24610000       0.02980000
C        0.35790000      -0.39920000      -1.26200000
N        1.55280000      -1.26190000      -1.21600000
C        0.25240000      -1.84790000      -1.58260000
C       -0.31280000      -2.88950000      -0.62770000
O       -1.68290000      -3.08050000      -0.84860000
C        0.43920000      -4.19510000      -0.80240000
O       -0.13340000      -5.22250000      -1.07980000
H        1.78610000       1.26910000       0.44150000
H        0.61530000       2.25930000      -0.44350000
H        0.39190000       1.96410000       1.28530000
H        0.01490000      -0.46650000       0.85370000
H       -1.15480000       0.49000000      -0.04790000
H        0.27320000       0.25670000      -2.12930000
H        2.13430000      -1.13310000      -2.03860000
H        0.07540000      -2.09850000      -2.62770000
H       -0.11450000      -2.55870000       0.40530000
H       -1.78630000      -4.03030000      -1.02200000
H        1.53640000      -4.14710000      -0.66600000
