14
Properties=species:S:1:pos:R:3 pbc="F F F"
O        0.04780000      -0.00180000       0.18820000
C       -0.03720000       1.18810000       0.14060000
C       -1.29770000       2.04840000       0.08970000
C       -0.78190000       3.44710000       0.34030000
C       -1.56640000       4.68040000       0.32250000
O       -1.15370000       4.08850000       1.56010000
C        0.70610000       3.38200000       0.01980000
O        1.06270000       1.99620000       0.11140000
H       -1.75070000       1.93900000      -0.90160000
H       -2.02330000       1.72220000       0.83580000
H       -1.08580000       5.62640000       0.07360000
H       -2.63440000       4.63660000       0.11350000
H        0.93060000       3.73610000      -0.99320000
H        1.29530000       3.94950000       0.74360000
