18
Properties=species:S:1:pos:R:3 pbc="F F F"
C        0.09230000       1.42180000      -0.01790000
C        1.33550000       0.62660000       0.01600000
N       -0.03670000      -0.04100000       0.08780000
C        0.20140000      -0.55630000      -1.30690000
C        1.64250000       0.01330000      -1.33830000
C        2.24080000       0.77900000      -2.57150000
C        3.36550000      -0.26320000      -2.61030000
O        4.01280000      -0.23100000      -1.33200000
C        2.80130000      -0.98550000      -1.45930000
H       -0.19420000       1.93860000       0.89290000
H       -0.21770000       1.91610000      -0.93740000
H        2.01630000       0.63780000       0.86080000
H        0.15970000      -1.64860000      -1.31920000
H       -0.50420000      -0.16380000      -2.04770000
H        1.57740000       0.73330000      -3.43980000
H        2.56200000       1.81030000      -2.40530000
H        3.94850000      -0.61960000      -3.45110000
H        2.83050000      -2.03250000      -1.17720000
