17
Properties=species:S:1:pos:R:3 pbc="F F F"
C        0.05690000       1.48130000      -0.10450000
C        1.30160000       0.68920000      -0.01290000
C        1.86940000       0.39380000       1.38250000
C        1.37970000      -1.05760000       1.55130000
C       -0.08650000      -0.60250000       1.36920000
C       -0.15380000       0.43960000       2.48470000
O        1.12520000       1.10380000       2.38650000
N       -0.02910000       0.00960000      -0.00150000
H       -0.20010000       2.11610000       0.73470000
H       -0.26110000       1.85930000      -1.07240000
H        1.94000000       0.52650000      -0.87920000
H        2.92900000       0.60680000       1.52050000
H        1.71030000      -1.72530000       0.75370000
H        1.60250000      -1.48810000       2.53080000
H       -0.85950000      -1.36980000       1.40970000
H       -0.96270000       1.16720000       2.36040000
H       -0.26290000      -0.02790000       3.47290000
