20
Properties=species:S:1:pos:R:3 pbc="F F F"
C       -0.23510000       1.52180000      -0.06140000
C       -0.07470000       0.00450000      -0.16130000
C        1.01860000      -0.43750000      -1.16400000
C        2.34480000       0.04610000      -0.76450000
N        3.39080000       0.41340000      -0.43720000
C        1.04790000      -1.95560000      -1.29940000
O       -0.02380000      -2.53150000      -2.04100000
C        1.31230000      -2.68000000      -2.55220000
C        1.63320000      -2.04510000      -3.88010000
H        0.69050000       1.99910000       0.27490000
H       -0.50520000       1.95650000      -1.02990000
H       -1.02420000       1.77900000       0.65070000
H        0.15930000      -0.41710000       0.82300000
H       -1.00890000      -0.45930000      -0.49420000
H        0.78550000      -0.00040000      -2.14060000
H        1.27420000      -2.46740000      -0.36160000
H        1.70080000      -3.69370000      -2.43750000
H        1.22070000      -1.03830000      -3.96920000
H        2.71780000      -1.99260000      -4.02080000
H        1.21770000      -2.65010000      -4.69220000
