20
Properties=species:S:1:pos:R:3 pbc="F F F"
C       -0.10350000       1.57330000       0.00930000
C        0.00800000       0.04790000       0.00190000
O       -1.32000000      -0.46050000       0.12390000
C        0.65660000      -0.43540000      -1.31020000
C        0.68220000      -1.95600000      -1.49680000
N        1.53890000      -2.74090000      -0.61470000
C        1.50080000      -2.65270000       0.63830000
O        0.75990000      -1.82110000       1.44640000
C        0.82690000      -0.40540000       1.21560000
H        0.87800000       2.04430000      -0.10360000
H       -0.73920000       1.90040000      -0.81800000
H       -0.55760000       1.92050000       0.94160000
H       -1.25260000      -1.33020000       0.53600000
H        0.08720000      -0.01160000      -2.14530000
H        1.67680000      -0.03820000      -1.38130000
H       -0.34520000      -2.33510000      -1.40590000
H        0.99830000      -2.17220000      -2.52160000
H        2.07920000      -3.34860000       1.24730000
H        1.87500000      -0.09860000       1.11520000
H        0.41230000       0.03730000       2.12490000
