18
Properties=species:S:1:pos:R:3 pbc="F F F"
N        0.30380000      -1.24370000       0.18770000
C        0.21090000      -0.09090000       0.14080000
C        0.05330000       1.33250000       0.05390000
C        0.41490000       2.25320000       1.21800000
C        0.97130000       1.69260000       2.51470000
C        2.30660000       1.01570000       2.37510000
C        3.05130000       1.03090000       1.27310000
C        2.67410000       1.72740000      -0.00490000
C        1.25640000       2.27040000      -0.02720000
H       -0.81490000       1.62330000      -0.52880000
H       -0.28260000       3.07510000       1.34600000
H        1.06310000       2.51840000       3.23430000
H        0.24890000       0.99720000       2.96340000
H        2.66350000       0.48790000       3.25530000
H        4.00780000       0.51540000       1.26610000
H        3.36530000       2.56530000      -0.17240000
H        2.82990000       1.04990000      -0.85550000
H        1.10440000       3.10340000      -0.70640000
