21
Properties=species:S:1:pos:R:3 pbc="F F F"
C        0.21820000       1.38910000      -0.40760000
C        0.02910000       0.06150000       0.34890000
C       -1.32560000      -0.47230000       0.25540000
C       -2.44740000      -0.90580000       0.16540000
C       -3.79780000      -1.40640000       0.08140000
C       -4.37100000      -1.77790000      -1.27870000
C       -4.03990000      -2.85080000      -0.27200000
O       -4.69980000      -0.89970000       1.02660000
C       -4.95560000       0.48630000       0.88560000
H        1.24790000       1.74460000      -0.30440000
H        0.00110000       1.26440000      -1.47190000
H       -0.45260000       2.15830000      -0.01520000
H        0.73600000      -0.68450000      -0.03700000
H        0.29080000       0.20030000       1.40580000
H       -5.41870000      -1.54340000      -1.43020000
H       -3.73760000      -1.66470000      -2.15040000
H       -3.17480000      -3.47970000      -0.44280000
H       -4.86520000      -3.32260000       0.24860000
H       -4.04000000       1.07930000       1.00930000
H       -5.39360000       0.71850000      -0.09590000
H       -5.66770000       0.75530000       1.66890000
