14
Properties=species:S:1:pos:R:3 pbc="F F F"
N        0.07980000       1.34570000       0.08800000
C       -0.02860000      -0.00880000       0.03960000
C       -1.14740000      -0.77890000      -0.01700000
C       -0.79670000      -2.19910000       0.00900000
O       -1.52980000      -3.16500000       0.02730000
C        0.73400000      -2.25890000       0.03100000
N        1.34960000      -1.65140000      -1.18330000
C        1.20670000      -0.86350000       0.07180000
H        0.95940000       1.76340000      -0.16900000
H       -0.73380000       1.90130000      -0.12430000
H       -2.16480000      -0.42580000      -0.11940000
H        1.23570000      -3.07800000       0.53200000
H        2.31230000      -1.98700000      -1.24250000
H        2.08690000      -0.54190000       0.61800000
