20
Properties=species:S:1:pos:R:3 pbc="F F F"
C        0.38920000       1.43750000       0.04330000
C        0.17150000      -0.07710000      -0.01750000
C        0.41180000      -0.64360000      -1.39990000
O        1.81870000      -0.48260000      -1.83420000
C        2.01460000      -1.84740000      -1.81900000
N        3.04840000      -2.54540000      -1.91650000
C        4.33790000      -1.89070000      -2.09510000
C        0.56830000      -2.18470000      -1.53240000
O        0.31770000      -2.95920000      -0.38820000
H        1.40950000       1.69340000      -0.25630000
H       -0.29900000       1.96670000      -0.62500000
H        0.22700000       1.81470000       1.05700000
H        0.82510000      -0.59200000       0.69370000
H       -0.85570000      -0.33150000       0.27160000
H       -0.24170000      -0.18550000      -2.14880000
H        4.70870000      -2.09120000      -3.10680000
H        4.30810000      -0.80530000      -1.94450000
H        5.05920000      -2.32810000      -1.39730000
H        0.03620000      -2.58920000      -2.40320000
H        1.10260000      -3.49910000      -0.23930000
