14
Properties=species:S:1:pos:R:3 pbc="F F F"
N       -0.01710000       1.31710000       0.11970000
C       -0.02400000      -0.06050000      -0.00200000
N       -1.08990000      -0.81300000      -0.00710000
C       -0.61370000      -2.11520000      -0.06420000
O       -1.47730000      -3.14470000      -0.08350000
C        0.74080000      -2.16680000      -0.10960000
N        1.14140000      -0.81300000      -0.05140000
C        2.44450000      -0.35100000       0.05230000
O        3.41360000      -1.06420000       0.01090000
H        0.56390000       1.80770000      -0.54710000
H       -0.96360000       1.67460000       0.10650000
H       -2.36250000      -2.76260000      -0.04900000
H        1.46100000      -2.95980000      -0.16900000
H        2.48990000       0.74300000       0.18720000
