18
Properties=species:S:1:pos:R:3 pbc="F F F"
C       -0.00140000       1.39280000       0.00570000
C        1.40110000       2.04550000       0.03920000
C        2.15650000       1.40610000      -1.11160000
N        3.57390000       1.69630000      -1.42820000
C        4.00240000       0.58630000      -1.87670000
O        3.19570000      -0.52050000      -1.83510000
C        2.16310000      -0.10170000      -0.91420000
C        0.75210000      -0.64510000      -1.03740000
O        0.02300000      -0.03390000       0.02480000
H       -0.58920000       1.68050000       0.88080000
H       -0.53680000       1.74330000      -0.89230000
H        1.30520000       3.13020000      -0.07370000
H        1.89510000       1.84440000       0.99580000
H        1.59490000       1.63930000      -2.03340000
H        4.97690000       0.41420000      -2.31950000
H        2.52340000      -0.34210000       0.09690000
H        0.31740000      -0.40570000      -2.02050000
H        0.68480000      -1.72370000      -0.87500000
