20
Properties=species:S:1:pos:R:3 pbc="F F F"
C       -0.34410000       1.50080000      -0.05300000
C        0.06020000       0.02060000      -0.00640000
C        0.94480000      -0.39770000      -1.15860000
C        1.97980000      -1.15840000      -0.78040000
C        1.95700000      -1.34000000       0.66830000
N        2.69040000      -2.07090000       1.41870000
O        3.65250000      -2.77880000       0.67100000
C        0.85650000      -0.46220000       1.25800000
C        1.46520000       0.65330000       2.12230000
H        0.52480000       2.16410000      -0.02360000
H       -0.89110000       1.71130000      -0.97810000
H       -0.99950000       1.76180000       0.78340000
H       -0.87010000      -0.56340000      -0.06920000
H        0.72140000      -0.11330000      -2.18220000
H        2.72800000      -1.60370000      -1.42010000
H        4.11360000      -3.27310000       1.35620000
H        0.20800000      -1.06790000       1.89810000
H        2.14890000       1.28210000       1.54330000
H        0.69310000       1.29570000       2.55580000
H        2.03820000       0.20350000       2.93700000
