16
Properties=species:S:1:pos:R:3 pbc="F F F"
O        0.17700000       1.29420000      -0.20260000
C        0.01050000      -0.06600000       0.17790000
C       -1.41110000      -0.50870000       0.15620000
C       -2.69080000      -0.07320000       0.91710000
C       -3.26390000      -1.44250000       0.81820000
N       -3.57180000      -0.42780000      -0.25150000
C       -2.32920000      -0.87750000      -1.01300000
C       -1.99670000      -1.91480000       0.03220000
O       -1.28590000      -3.07920000      -0.01250000
H       -0.25240000       1.40630000      -1.05750000
H        0.60440000      -0.74480000      -0.45490000
H        0.41850000      -0.13600000       1.19260000
H       -2.90930000       0.75380000       1.58290000
H       -4.04150000      -1.94620000       1.38110000
H       -2.20390000      -0.83000000      -2.08850000
H       -1.75810000      -3.71080000      -0.56840000
