21
Properties=species:S:1:pos:R:3 pbc="F F F"
C        0.01330000       1.58320000       0.10200000
C        0.01190000       0.05510000       0.02490000
C        0.70720000      -0.43740000      -1.24980000
O        0.73340000      -1.85570000      -1.33500000
C        1.46090000      -2.43710000      -0.27450000
C        0.83120000      -2.10300000       1.08870000
C        0.68080000      -0.58360000       1.25620000
C       -0.47720000      -2.85480000       1.26150000
O       -1.51590000      -2.37000000       1.62910000
H        1.03560000       1.97860000       0.13550000
H       -0.48820000       2.02740000      -0.76450000
H       -0.50590000       1.92960000       1.00120000
H       -1.02520000      -0.29740000      -0.01320000
H        0.18000000      -0.09060000      -2.14360000
H        1.73870000      -0.04240000      -1.29180000
H        1.46400000      -3.51770000      -0.45490000
H        2.50760000      -2.08970000      -0.28590000
H        1.49900000      -2.51190000       1.86430000
H        1.67710000      -0.14350000       1.39690000
H        0.09690000      -0.36480000       2.15500000
H       -0.40550000      -3.94470000       1.03340000
