16
Properties=species:S:1:pos:R:3 pbc="F F F"
N       -0.05060000      -1.11960000      -0.13250000
C       -0.02700000       0.02980000      -0.04130000
C       -0.03120000       1.50300000       0.02590000
O       -0.74040000       1.88980000       1.16890000
C       -0.98790000       3.29790000       1.14700000
C        0.27860000       4.07780000       0.85960000
C        1.54310000       3.82430000       1.64790000
C        1.42830000       3.32210000       0.23500000
O        1.30500000       1.92870000       0.05330000
H       -0.53860000       1.89850000      -0.87380000
H       -1.74500000       3.52110000       0.37910000
H       -1.41000000       3.53940000       2.12580000
H        0.10920000       5.08870000       0.50230000
H        2.20040000       4.66200000       1.85090000
H        1.50780000       3.06230000       2.41860000
H        2.01800000       3.78240000      -0.55150000
