17
Properties=species:S:1:pos:R:3 pbc="F F F"
C        0.03290000       1.60840000      -0.26490000
C       -0.00890000       0.11730000       0.10980000
C       -1.40340000      -0.42490000       0.14790000
C       -2.12520000      -0.91310000       1.23100000
N       -3.35850000      -1.26690000       0.71290000
C       -3.33240000      -0.98940000      -0.60520000
N       -2.17190000      -0.48010000      -0.98400000
C       -1.84430000      -1.09590000       2.63580000
O       -2.65130000      -1.55570000       3.42430000
H        1.06630000       1.96010000      -0.33670000
H       -0.45750000       1.77090000      -1.22800000
H       -0.48360000       2.21610000       0.48470000
H        0.56350000      -0.45450000      -0.63050000
H        0.47830000      -0.04230000       1.07710000
H       -4.10070000      -1.66190000       1.26920000
H       -4.17490000      -1.17350000      -1.25570000
H       -0.83020000      -0.78650000       2.95940000
