18
Properties=species:S:1:pos:R:3 pbc="F F F"
C        0.15090000       1.49130000       0.20280000
C        0.00800000      -0.00750000       0.04910000
O        1.01250000      -0.59240000      -0.85230000
C        1.25670000      -1.70750000       0.06660000
C        2.59990000      -2.04160000       0.69100000
N        3.38510000      -0.91300000       1.22130000
C        2.48150000      -1.65510000       2.14270000
C        1.21220000      -0.86180000       2.28880000
C        0.55740000      -0.91540000       1.12930000
H        1.15910000       1.73750000       0.54370000
H       -0.03280000       1.99000000      -0.75390000
H       -0.57750000       1.86860000       0.92870000
H       -0.99760000      -0.27740000      -0.30420000
H        0.76690000      -2.61440000      -0.31270000
H        3.12450000      -2.94410000       0.39740000
H        4.34040000      -1.23940000       1.35900000
H        2.91680000      -2.24890000       2.93940000
H        1.04530000      -0.17110000       3.10650000
