14
Properties=species:S:1:pos:R:3 pbc="F F F"
N       -0.04400000       1.25960000      -0.27520000
C       -0.04240000       0.02700000      -0.05030000
O        1.08980000      -0.73230000       0.18270000
C        0.80560000      -2.08950000       0.19410000
O        1.64620000      -2.90120000       0.41350000
C       -0.66310000      -2.28320000      -0.14270000
C       -1.27780000      -0.87530000       0.01130000
C       -1.98480000      -0.70450000       1.27600000
C       -2.55840000      -0.59240000       2.32500000
H        0.90200000       1.64350000      -0.25950000
H       -0.72560000      -2.64020000      -1.17560000
H       -1.10690000      -3.03830000       0.50470000
H       -1.93970000      -0.61340000      -0.81800000
H       -3.06930000      -0.47670000       3.24910000
