11
Properties=species:S:1:pos:R:3 pbc="F F F"
O        0.04120000       1.39520000       0.00940000
C       -0.01680000      -0.00010000       0.00220000
C       -1.47100000      -0.44050000       0.01370000
O       -2.41620000       0.30650000       0.02650000
C       -1.65330000      -1.89140000       0.00780000
C       -1.84090000      -3.08650000       0.00330000
C       -2.04020000      -4.43690000      -0.00200000
N       -2.20320000      -5.58680000      -0.00690000
H        0.96570000       1.66020000       0.00010000
H        0.45230000      -0.45570000      -0.88820000
H        0.46910000      -0.46540000       0.87850000
