17
Properties=species:S:1:pos:R:3 pbc="F F F"
C       -0.07530000       1.56940000      -0.07640000
C       -0.01550000       0.05290000      -0.04470000
C       -1.17020000      -0.63180000      -0.55630000
C       -2.13340000      -1.20810000      -0.99040000
C        1.33030000      -0.63910000      -0.23610000
O        2.47010000       0.11730000      -0.45000000
C        0.69330000      -0.66370000       1.14210000
C        1.32240000       0.09810000       2.17490000
C        1.91970000       0.73480000       3.00520000
H        0.87980000       2.00140000       0.22270000
H       -0.30090000       1.90770000      -1.09140000
H       -0.85620000       1.94170000       0.59220000
H       -2.98520000      -1.71060000      -1.37670000
H        1.32190000      -1.56990000      -0.79620000
H        2.84760000       0.35000000       0.40910000
H        0.24060000      -1.59880000       1.45360000
H        2.40590000       1.29760000       3.76370000
