18
Properties=species:S:1:pos:R:3 pbc="F F F"
N       -0.04790000       1.43090000      -0.18730000
C       -0.05220000       0.02480000      -0.01230000
C       -0.41460000      -0.87320000      -1.16530000
C       -1.24910000      -0.92780000       0.08320000
C       -0.53250000      -1.79130000       1.12120000
C        0.70730000      -0.79080000       1.07630000
N        2.05420000      -1.20890000       0.72910000
C        0.76400000      -0.01630000       2.31970000
N        0.77620000       0.61360000       3.28920000
H       -0.13010000       1.91360000       0.70310000
H        0.81200000       1.74390000      -0.62800000
H       -0.84840000      -0.32820000      -1.99610000
H        0.19480000      -1.72610000      -1.45700000
H       -2.30160000      -0.67850000       0.08840000
H       -1.01600000      -1.82500000       2.09850000
H       -0.28580000      -2.81060000       0.80610000
H        2.45100000      -1.80640000       1.44800000
H        2.03700000      -1.73970000      -0.13510000
