19
Properties=species:S:1:pos:R:3 pbc="F F F"
O        0.15150000       1.35920000       0.14510000
C        0.06610000      -0.03040000      -0.13990000
C       -1.35050000      -0.54030000      -0.10560000
C       -1.99090000      -0.99390000       1.19100000
C       -1.71770000      -2.00120000       0.10280000
C       -2.82510000      -2.38240000      -0.88700000
C       -3.18940000      -1.09580000      -1.61680000
O       -3.70060000      -0.05390000      -0.77300000
C       -2.31580000      -0.00780000      -1.14820000
H       -0.30610000       1.50770000       0.97980000
H        0.49630000      -0.14550000      -1.14190000
H        0.68680000      -0.62500000       0.54970000
H       -1.35260000      -1.04370000       2.06850000
H       -3.01300000      -0.68960000       1.37770000
H       -0.94080000      -2.73480000       0.29270000
H       -2.44310000      -3.10860000      -1.61370000
H       -3.69730000      -2.83490000      -0.40270000
H       -3.62760000      -1.13530000      -2.61190000
H       -2.02330000       0.84680000      -1.75130000
