15
Properties=species:S:1:pos:R:3 pbc="F F F"
O        0.18350000       1.32820000      -0.18290000
C        0.11040000      -0.04300000      -0.06590000
C        0.00540000      -0.62310000       1.39540000
O       -1.39750000      -0.18510000       1.38880000
C       -1.36830000      -0.66430000      -0.01380000
C       -1.03490000      -2.14550000       0.15560000
C       -0.10480000      -2.11380000       1.11580000
C       -2.43830000      -0.22220000      -0.86010000
C       -3.30870000       0.16300000      -1.59380000
H       -0.48070000       1.68800000       0.42260000
H        0.82140000      -0.49660000      -0.75830000
H        0.59050000      -0.24240000       2.23000000
H       -1.44860000      -2.95950000      -0.41960000
H        0.47550000      -2.90920000       1.55870000
H       -4.08270000       0.50050000      -2.23820000
