16
Properties=species:S:1:pos:R:3 pbc="F F F"
C        0.02290000       1.46670000      -0.00810000
C        1.32560000       1.82050000       0.12440000
C        2.20950000       1.83710000      -1.10030000
C        2.07070000       0.37580000      -1.56540000
C        1.05610000      -0.55420000      -0.93210000
C       -0.04180000       0.01150000       0.09900000
C        1.30420000      -0.53120000       0.55070000
C        2.20620000       0.67930000       0.67300000
N        3.10920000       0.77750000      -0.56610000
H       -0.69130000       2.01730000      -0.61390000
H        2.56050000       2.63380000      -1.74830000
H        2.45180000       0.11470000      -2.54710000
H        0.79100000      -1.46910000      -1.44580000
H       -0.94900000      -0.57440000       0.20230000
H        1.38700000      -1.42080000       1.16100000
H        2.76300000       0.83730000       1.59480000
