21
Properties=species:S:1:pos:R:3 pbc="F F F"
C       -0.05530000       1.22920000      -0.65830000
C        1.09840000       1.76200000       0.23370000
C        1.28170000       0.32620000       0.79400000
C       -0.13980000      -0.01150000       0.26930000
C        2.46010000      -0.56160000       0.26840000
C        2.87880000      -0.85100000       1.72580000
O        3.84620000       0.09430000       2.22900000
C        2.80840000       0.90850000       2.82420000
C        1.69770000       0.01050000       2.25340000
H       -0.94840000       1.85040000      -0.75490000
H        0.29350000       0.96590000      -1.66050000
H        1.95880000       2.22160000      -0.26010000
H        0.72920000       2.45000000       1.00170000
H       -0.89470000       0.11930000       1.05210000
H       -0.28540000      -0.99220000      -0.19300000
H        2.12400000      -1.44690000      -0.28090000
H        3.23290000      -0.05100000      -0.31220000
H        3.10880000      -1.87850000       2.01980000
H        2.88020000       0.90380000       3.91960000
H        2.83720000       1.94720000       2.47120000
H        0.92000000      -0.33750000       2.93400000
