20
Properties=species:S:1:pos:R:3 pbc="F F F"
N       -0.07570000       1.23980000       0.44750000
C        0.02800000       0.00230000      -0.11970000
O        1.05680000      -0.39110000      -0.63570000
C       -1.25420000      -0.82680000      -0.08620000
C       -0.96920000      -2.32940000      -0.12420000
C       -2.24020000      -3.14990000      -0.21750000
C       -2.15300000      -4.66920000       0.05030000
C       -3.17270000      -4.38620000       1.17080000
O       -3.10770000      -2.96460000       0.93370000
H        0.73310000       1.83910000       0.44140000
H       -0.90770000       1.54930000       0.91710000
H       -1.85980000      -0.57960000       0.79210000
H       -1.84910000      -0.53710000      -0.96380000
H       -0.32110000      -2.55120000      -0.97880000
H       -0.41770000      -2.62310000       0.77680000
H       -2.78330000      -2.90020000      -1.14180000
H       -2.48760000      -5.32270000      -0.75630000
H       -1.17260000      -5.00050000       0.39920000
H       -4.18040000      -4.78340000       0.99160000
H       -2.86840000      -4.64690000       2.19120000
