15
Properties=species:S:1:pos:R:3 pbc="F F F"
N       -0.06530000       1.27930000      -0.01790000
C       -0.01570000       0.01550000      -0.02990000
N       -1.11020000      -0.84550000      -0.04820000
C       -0.64120000      -2.14920000       0.03160000
C        0.69780000      -2.08530000       0.01930000
O        1.13260000      -0.77980000      -0.02570000
C        1.29320000      -3.40550000      -0.01680000
C        0.27220000      -4.29320000      -0.02890000
C       -1.07860000      -3.57620000      -0.01620000
H        0.86840000       1.67970000      -0.00280000
H       -2.03980000      -0.49750000       0.10490000
H        2.35040000      -3.62970000      -0.01860000
H        0.35660000      -5.37020000      -0.01950000
H       -1.68690000      -3.88590000       0.84320000
H       -1.66020000      -3.81150000      -0.91680000
