15
Properties=species:S:1:pos:R:3 pbc="F F F"
O       -0.05340000      -0.04890000      -0.10000000
C       -0.00510000       1.12630000       0.16150000
C        1.25250000       1.95670000       0.05520000
C        1.21960000       3.20240000      -0.91570000
C        1.53770000       4.10490000       0.28630000
N        0.42990000       3.89480000       1.25680000
C        1.53830000       2.92790000       1.21740000
C        2.33700000       5.28300000       0.31030000
N        2.99010000       6.23890000       0.31720000
H       -0.90080000       1.68750000       0.49980000
H        2.09760000       1.30250000      -0.16190000
H        2.02100000       3.15760000      -1.65280000
H        0.26940000       3.42450000      -1.40490000
H        0.58340000       4.51650000       2.05080000
H        2.15790000       2.74530000       2.08620000
