17
Properties=species:S:1:pos:R:3 pbc="F F F"
N        0.12880000       1.33980000       0.09100000
C        0.00450000      -0.01790000       0.03000000
N       -1.06020000      -0.69760000       0.21120000
C       -0.70670000      -2.09680000      -0.04890000
C       -1.56630000      -2.70020000      -1.17670000
C       -3.04200000      -2.69670000      -0.83560000
O       -3.73980000      -3.67990000      -0.84260000
C        0.81230000      -2.05450000      -0.39510000
O        1.15720000      -0.65730000      -0.30650000
H        1.05540000       1.68650000       0.28180000
H       -0.61790000       1.80730000       0.57970000
H       -0.87320000      -2.68960000       0.85970000
H       -1.42490000      -2.08970000      -2.07960000
H       -1.26370000      -3.72920000      -1.39550000
H       -3.44720000      -1.69940000      -0.56600000
H        1.43490000      -2.60890000       0.31210000
H        1.03250000      -2.39930000      -1.41030000
