13
Properties=species:S:1:pos:R:3 pbc="F F F"
C       -0.01430000       1.42950000       0.07310000
C       -0.01390000      -0.04690000      -0.06500000
N       -0.20450000      -0.75130000      -1.15400000
C       -0.09270000      -2.02570000      -0.67770000
C        0.15470000      -2.05950000       0.64530000
O        0.21510000      -0.77830000       1.09290000
N        0.26510000      -3.33350000       1.12100000
C        0.07310000      -4.02490000       0.02860000
O       -0.15470000      -3.30520000      -1.12630000
H        0.94870000       1.78910000       0.45030000
H       -0.20480000       1.87390000      -0.90380000
H       -0.78760000       1.75830000       0.77510000
H        0.07140000      -5.09690000      -0.07990000
