13
Properties=species:S:1:pos:R:3 pbc="F F F"
O       -0.90970000       1.25480000       0.53250000
C        0.01670000       1.13560000      -0.23400000
C        1.24130000       1.89610000      -0.14920000
C        2.28430000       2.50210000      -0.10760000
C        3.50040000       3.30790000      -0.03290000
C        3.09960000       4.79280000       0.22810000
O        3.36980000       5.67890000      -0.52670000
C        4.38430000       2.87680000       1.04900000
C        5.10840000       2.58410000       1.96080000
H       -0.01220000       0.41620000      -1.07630000
H        4.03060000       3.29390000      -0.99270000
H        2.55070000       4.93970000       1.17880000
H        5.75330000       2.30570000       2.75810000
