19
Properties=species:S:1:pos:R:3 pbc="F F F"
C        0.09460000       1.52080000      -0.05840000
C        0.07290000       0.00420000      -0.03820000
C        1.18290000      -0.74790000      -0.73910000
C        1.14620000      -0.70350000       0.76650000
C       -1.27060000      -0.67070000      -0.04600000
N       -2.44740000       0.07040000       0.39730000
C       -2.39720000      -0.38710000      -1.00460000
C       -2.34700000       0.61670000      -2.03940000
N       -2.32040000       1.38210000      -2.90590000
H        1.12580000       1.87930000       0.01210000
H       -0.33530000       1.92540000      -0.97830000
H       -0.47080000       1.92860000       0.78380000
H        0.94070000      -1.68630000      -1.22780000
H        1.93420000      -0.16220000      -1.25710000
H        1.87220000      -0.08530000       1.28290000
H        0.88190000      -1.61220000       1.29810000
H       -1.22050000      -1.72570000       0.22630000
H       -3.08920000      -0.50910000       0.93060000
H       -3.00520000      -1.24380000      -1.28630000
