17
Properties=species:S:1:pos:R:3 pbc="F F F"
O       -0.08230000      -0.05800000      -0.06170000
C       -0.05800000       1.14800000       0.03690000
C       -1.29500000       1.95740000       0.07010000
C       -1.29720000       3.28250000       0.26090000
C       -0.05190000       4.08330000       0.51070000
C        1.11480000       3.20320000       0.97040000
C        1.26240000       1.95420000       0.07020000
C        2.40730000       1.13750000       0.44340000
C        3.36800000       0.50030000       0.78040000
H       -2.21260000       1.39840000      -0.08450000
H       -2.23980000       3.82530000       0.23560000
H        0.21530000       4.62180000      -0.41210000
H       -0.25650000       4.86340000       1.25310000
H        2.05120000       3.76720000       0.96930000
H        0.94150000       2.87110000       2.00020000
H        1.40170000       2.30410000      -0.96630000
H        4.20790000      -0.08270000       1.06690000
