23
Properties=species:S:1:pos:R:3 pbc="F F F"
C       -0.60810000       1.76080000       0.48230000
C       -0.37900000       0.25080000       0.36720000
C       -1.63970000      -0.56560000       0.02270000
C       -2.23220000      -0.19540000      -1.34440000
C       -1.33670000      -2.08640000       0.05040000
O       -0.36800000      -2.42400000      -0.90760000
C       -0.88850000      -2.58450000       1.42700000
C       -1.80680000      -2.38370000       2.61030000
O        0.18660000      -3.13940000       1.52990000
H        0.30870000       2.26770000       0.79910000
H       -0.91230000       2.20340000      -0.47060000
H       -1.38580000       1.99310000       1.21930000
H        0.38350000       0.04210000      -0.39090000
H        0.03640000      -0.11230000       1.31680000
H       -2.40390000      -0.37220000       0.78920000
H       -1.51010000      -0.39980000      -2.14000000
H       -3.13380000      -0.78190000      -1.55080000
H       -2.50870000       0.86110000      -1.39010000
H       -2.28110000      -2.61660000      -0.17250000
H        0.33420000      -2.87120000      -0.40630000
H       -2.85050000      -2.57600000       2.34450000
H       -1.49810000      -3.03540000       3.42870000
H       -1.74560000      -1.34300000       2.94870000
