18
Properties=species:S:1:pos:R:3 pbc="F F F"
C        0.01070000       1.46290000       0.00530000
C       -0.01710000      -0.05380000       0.04120000
C        0.31020000      -0.76100000      -1.33020000
C       -1.03110000      -1.49000000      -1.25840000
C       -1.20600000      -2.15280000       0.07670000
O       -0.13340000      -2.67970000       0.84530000
C        0.68420000      -1.76660000       1.43010000
N        0.80620000      -0.53900000       1.15080000
C       -1.42800000      -0.68970000      -0.00090000
H        1.03860000       1.81740000      -0.11760000
H       -0.59780000       1.84890000      -0.81870000
H       -0.37510000       1.87280000       0.94420000
H        0.35030000      -0.04280000      -2.15280000
H        1.21110000      -1.37990000      -1.34970000
H       -1.64530000      -1.78090000      -2.10250000
H       -2.07090000      -2.79650000       0.18410000
H        1.27510000      -2.23630000       2.21350000
H       -2.35030000      -0.19690000       0.28020000
