15
Properties=species:S:1:pos:R:3 pbc="F F F"
C        0.01520000      -1.17510000      -0.02030000
C       -0.00150000       0.02900000      -0.02690000
C       -0.04470000       1.44700000      -0.01170000
C        0.26090000       2.31910000      -1.21470000
C        1.08640000       2.48010000       0.02040000
N        0.49120000       3.21870000       1.19820000
C       -0.86960000       3.70280000       0.87670000
C       -0.66950000       2.26650000       1.14680000
H        0.03700000      -2.23640000      -0.01830000
H        0.77900000       1.77880000      -2.00030000
H       -0.43850000       3.05840000      -1.58710000
H        2.15600000       2.31800000       0.04080000
H       -1.27950000       4.29500000       1.69010000
H       -1.11380000       4.08340000      -0.10760000
H       -1.01860000       1.77250000       2.04710000
