25
Properties=species:S:1:pos:R:3 pbc="F F F"
C       -0.33750000       1.37470000      -0.13900000
O       -0.42950000       0.01270000      -0.48960000
C        0.66540000      -0.52320000      -1.21210000
C        0.74930000       0.08020000      -2.61470000
C        2.04860000      -0.54850000      -0.49200000
C        2.19510000      -2.03560000      -0.90630000
C        0.65950000      -2.10200000      -1.17490000
C       -0.09290000      -2.63810000       0.04890000
C        0.20890000      -2.85120000      -2.42700000
H        0.60500000       1.60480000       0.37940000
H       -0.42630000       2.04540000      -1.00560000
H       -1.16750000       1.58300000       0.54150000
H        0.94720000       1.15560000      -2.56340000
H        1.56300000      -0.36700000      -3.19230000
H       -0.18650000      -0.07120000      -3.16090000
H        2.81010000       0.15170000      -0.84480000
H        1.93750000      -0.43340000       0.58900000
H        2.78330000      -2.15660000      -1.82040000
H        2.58490000      -2.72400000      -0.15210000
H        0.22040000      -2.14780000       0.97370000
H       -1.17050000      -2.48370000      -0.05220000
H        0.09400000      -3.71310000       0.15350000
H        0.38610000      -3.92630000      -2.30750000
H       -0.86350000      -2.71450000      -2.60810000
H        0.74600000      -2.52900000      -3.32330000
