23
Properties=species:S:1:pos:R:3 pbc="F F F"
C        0.08660000       1.30500000      -0.08470000
O       -0.05110000      -0.09430000       0.07030000
C       -1.39570000      -0.60180000       0.06550000
C       -2.25210000       0.00730000       1.16330000
C       -1.95750000      -0.65780000      -1.39060000
C       -1.31070000      -2.07280000      -1.54150000
C       -2.08370000      -3.14130000      -2.28710000
O       -0.01900000      -2.00860000      -2.12170000
C       -1.25000000      -2.14470000       0.01690000
H        1.15230000       1.50240000      -0.22460000
H       -0.45860000       1.68350000      -0.96060000
H       -0.25520000       1.85370000       0.80230000
H       -2.45110000       1.07000000       0.99190000
H       -3.21850000      -0.50290000       1.20890000
H       -1.76140000      -0.09880000       2.13670000
H       -3.05100000      -0.69340000      -1.40120000
H       -1.61560000       0.10260000      -2.09740000
H       -2.14330000      -2.89190000      -3.35140000
H       -1.57840000      -4.10790000      -2.19540000
H       -3.09970000      -3.23870000      -1.89390000
H        0.48180000      -1.36860000      -1.59870000
H       -0.33450000      -2.55270000       0.45150000
H       -2.12130000      -2.64580000       0.44690000
