21
Properties=species:S:1:pos:R:3 pbc="F F F"
C       -0.52680000       1.41460000       0.14840000
C        0.13540000       0.04100000      -0.03050000
O        1.02240000       0.06920000      -1.11590000
C        0.87910000      -0.42270000       1.22970000
O        2.05980000      -0.68990000       1.14330000
C        0.10090000      -0.56060000       2.52650000
C        0.89220000      -1.18630000       3.65020000
C        1.71060000      -0.32620000       4.57580000
C        0.45410000      -0.99270000       5.08000000
H        0.21580000       2.16520000       0.43640000
H       -0.96540000       1.72010000      -0.80450000
H       -1.32110000       1.38930000       0.90020000
H       -0.65980000      -0.70470000      -0.21310000
H        1.87080000      -0.23830000      -0.75590000
H       -0.25200000       0.43860000       2.81650000
H       -0.81330000      -1.13250000       2.31070000
H        1.32030000      -2.15250000       3.40310000
H        2.66930000      -0.70360000       4.91180000
H        1.68890000       0.74800000       4.42270000
H       -0.41300000      -0.36730000       5.26790000
H        0.55080000      -1.82830000       5.76400000
