22
Properties=species:S:1:pos:R:3 pbc="F F F"
C       -0.12100000       1.60850000       0.02890000
C        0.08270000       0.09320000      -0.04180000
C        0.73940000      -0.50860000       1.22270000
C       -0.03210000      -0.13500000       2.41420000
N       -0.66950000       0.11310000       3.34710000
C        0.86900000      -2.07680000       1.19330000
C        1.58950000      -2.54300000      -0.07390000
C        1.61930000      -2.57090000       2.43860000
O       -0.43030000      -2.65680000       1.13100000
H        0.83000000       2.13270000       0.17560000
H       -0.56380000       1.97760000      -0.90060000
H       -0.78610000       1.88690000       0.85170000
H       -0.87100000      -0.41790000      -0.20430000
H        0.72300000      -0.14590000      -0.89550000
H        1.74510000      -0.08360000       1.33900000
H        2.55560000      -2.04210000      -0.18660000
H        1.76480000      -3.62030000      -0.01420000
H        0.98510000      -2.35300000      -0.96240000
H        1.12610000      -2.24220000       3.35880000
H        1.64780000      -3.66370000       2.43480000
H        2.64880000      -2.19850000       2.45720000
H       -0.88020000      -2.47780000       1.96580000
