20
Properties=species:S:1:pos:R:3 pbc="F F F"
C       -0.18620000       1.49370000      -0.01480000
C        0.06990000       0.02220000       0.03190000
C        0.80130000      -0.84670000      -0.91060000
C        1.73790000      -1.81400000      -0.19120000
C        1.44460000      -1.56710000       1.31110000
C        0.06400000      -0.90040000       1.28590000
O       -0.35750000      -0.28810000       2.47250000
C       -0.93900000      -1.78000000       0.49520000
N       -0.68500000      -1.00940000      -0.76980000
H        0.66050000       2.05390000       0.39740000
H       -0.34320000       1.81800000      -1.04780000
H       -1.07440000       1.75530000       0.56860000
H        1.06620000      -0.48860000      -1.90030000
H        1.54830000      -2.85190000      -0.48550000
H        2.77970000      -1.59880000      -0.44550000
H        1.45000000      -2.48940000       1.90450000
H        2.17140000      -0.87450000       1.75000000
H       -0.30910000      -0.93420000       3.18490000
H       -0.75580000      -2.86000000       0.43530000
H       -1.97120000      -1.59950000       0.80460000
