18
Properties=species:S:1:pos:R:3 pbc="F F F"
C       -0.04490000       1.51670000      -0.00960000
C        0.02230000       0.00920000       0.00550000
C       -0.77440000      -0.77030000       0.99920000
C        0.75110000      -0.75940000       1.10540000
C        1.44520000      -1.91820000       0.47070000
O        2.33740000      -2.57050000       0.95450000
C        0.87650000      -2.09200000      -0.94860000
C        0.29840000      -0.71230000      -1.32070000
H        0.87890000       1.95080000      -0.40810000
H       -0.87360000       1.86370000      -0.63830000
H       -0.20110000       1.92000000       0.99570000
H       -1.29340000      -0.21410000       1.77250000
H       -1.27200000      -1.68900000       0.70530000
H        1.21210000      -0.28480000       1.96260000
H        1.65930000      -2.44360000      -1.62280000
H        0.10630000      -2.87220000      -0.92450000
H       -0.60010000      -0.77640000      -1.94380000
H        1.04140000      -0.13820000      -1.88640000
