20
Properties=species:S:1:pos:R:3 pbc="F F F"
C       -0.17590000       1.37730000       0.38260000
C       -0.28240000      -0.13890000       0.33910000
O        0.14440000      -0.84860000       1.23310000
N       -0.88660000      -0.65480000      -0.77280000
C       -1.09060000      -2.08440000      -0.93110000
C       -2.34720000      -2.59960000      -0.21510000
C       -2.52670000      -4.11760000      -0.38540000
C       -3.70000000      -4.62920000       0.41820000
O       -4.65090000      -5.20930000      -0.03850000
H        0.86410000       1.64850000       0.57920000
H       -0.50710000       1.86960000      -0.53550000
H       -0.77350000       1.74990000       1.21940000
H       -1.27870000      -0.02880000      -1.45550000
H       -1.14090000      -2.30890000      -2.00180000
H       -0.20970000      -2.58680000      -0.52080000
H       -2.25950000      -2.34900000       0.84770000
H       -3.23140000      -2.07690000      -0.60010000
H       -2.67420000      -4.39560000      -1.43350000
H       -1.62380000      -4.62700000      -0.01790000
H       -3.63030000      -4.41450000       1.51080000
