23
Properties=species:S:1:pos:R:3 pbc="F F F"
C       -0.12970000       1.52050000      -0.01060000
C        0.04930000      -0.00770000      -0.10700000
C        0.81550000      -0.37490000      -1.29790000
C        1.46750000      -0.66930000      -2.26470000
C        0.70410000      -0.58200000       1.15850000
C       -0.08390000      -0.52110000       2.49700000
C        0.46490000      -1.93570000       2.83970000
C       -0.44960000      -2.93670000       3.52790000
C        0.79300000      -2.12140000       1.33090000
H        0.84140000       2.01660000       0.08110000
H       -0.62750000       1.91370000      -0.90080000
H       -0.73270000       1.77750000       0.86550000
H       -0.94900000      -0.46170000      -0.19530000
H        2.03300000      -0.93460000      -3.12320000
H        1.69520000      -0.13050000       1.27940000
H        0.13200000       0.29770000       3.18800000
H       -1.16620000      -0.55180000       2.32100000
H        1.39780000      -1.83590000       3.40660000
H       -1.38980000      -3.05330000       2.97650000
H        0.02030000      -3.92450000       3.59580000
H       -0.69830000      -2.61660000       4.54620000
H       -0.02760000      -2.62510000       0.80670000
H        1.72950000      -2.61400000       1.06070000
