13
Properties=species:S:1:pos:R:3 pbc="F F F"
N       -0.04300000       1.34950000       0.01010000
C        1.26510000       1.85190000       0.00020000
C        2.16410000       0.81850000      -0.01440000
C        1.39780000      -0.39600000      -0.01370000
C        0.05940000      -0.00990000       0.00150000
N       -0.71250000      -1.12050000       0.00340000
N        0.07170000      -2.24600000      -0.01090000
C        1.32770000      -1.81430000      -0.02080000
H       -0.87890000       1.90430000       0.02220000
H        1.42490000       2.91840000       0.00450000
H        3.23710000       0.92770000      -0.02430000
H       -1.71040000      -1.22440000       0.01110000
H        2.12720000      -2.54050000      -0.03260000
