20
Properties=species:S:1:pos:R:3 pbc="F F F"
C        0.04390000       1.47140000      -0.04290000
C       -0.08500000      -0.05490000      -0.02650000
N       -1.47540000      -0.53490000      -0.03240000
C       -2.20030000      -0.55600000      -1.25700000
C       -1.37020000      -0.59050000      -2.53510000
O       -3.40320000      -0.55490000      -1.29980000
C       -2.10650000      -0.93810000       1.17240000
C       -1.37570000      -0.61410000       2.47120000
O       -3.15240000      -1.53550000       1.18960000
H        1.09950000       1.76090000      -0.04000000
H       -0.42310000       1.90270000      -0.93330000
H       -0.43570000       1.92170000       0.83090000
H        0.43600000      -0.48150000      -0.88580000
H        0.41770000      -0.46270000       0.84990000
H       -0.78540000       0.32250000      -2.67920000
H       -0.67640000      -1.43720000      -2.54280000
H       -2.07190000      -0.69010000      -3.36240000
H       -0.99980000       0.41090000       2.51280000
H       -2.08940000      -0.77570000       3.27850000
H       -0.52890000      -1.29130000       2.62660000
