18
Properties=species:S:1:pos:R:3 pbc="F F F"
C       -0.03440000       1.54620000       0.02500000
C        0.04140000       0.04200000       0.03300000
C        0.97890000      -0.80360000      -0.90550000
C        0.69830000      -1.93210000       0.12570000
C        0.66850000      -0.80800000       1.19880000
C       -0.80130000      -2.20260000      -0.09600000
C       -1.26050000      -0.73040000      -0.16060000
O       -2.36790000      -0.29100000      -0.32300000
H        0.95150000       1.99810000       0.17140000
H       -0.44160000       1.90790000      -0.92470000
H       -0.69880000       1.90420000       0.81820000
H        0.67070000      -0.95570000      -1.94450000
H        2.00830000      -0.43840000      -0.86730000
H        1.35630000      -2.79460000       0.22100000
H        1.66490000      -0.44340000       1.46080000
H        0.07360000      -0.96430000       2.10390000
H       -1.02910000      -2.73090000      -1.02720000
H       -1.28790000      -2.73460000       0.72760000
