25
Properties=species:S:1:pos:R:3 pbc="F F F"
C       -0.10310000       1.54830000      -0.02210000
C        0.05200000       0.02380000      -0.01100000
C        0.67860000      -0.50020000      -1.31100000
C        0.62900000      -2.03230000      -1.36800000
C        0.93370000      -2.66960000      -0.03930000
C        1.02270000      -2.01710000       1.12330000
C        1.30080000      -2.74490000       2.41380000
C        0.82940000      -0.51060000       1.21890000
C        2.17460000       0.20590000       1.46660000
H        0.85080000       2.05390000      -0.20530000
H       -0.79350000       1.85780000      -0.81400000
H       -0.50040000       1.91970000       0.92940000
H       -0.95670000      -0.40880000       0.05800000
H        0.16120000      -0.07310000      -2.17770000
H        1.71960000      -0.15970000      -1.37700000
H       -0.36790000      -2.36130000      -1.69990000
H        1.32290000      -2.40940000      -2.13100000
H        1.06510000      -3.75080000      -0.04520000
H        1.42230000      -3.81910000       2.24990000
H        2.20980000      -2.37750000       2.90580000
H        0.48190000      -2.60140000       3.13120000
H        0.20570000      -0.31740000       2.10490000
H        2.84490000       0.10910000       0.60690000
H        2.03010000       1.27100000       1.66850000
H        2.69090000      -0.22080000       2.33130000
