21
Properties=species:S:1:pos:R:3 pbc="F F F"
C       -0.06330000       1.53220000      -0.02830000
C       -0.01410000      -0.00970000      -0.05930000
C       -1.41980000      -0.61320000       0.15850000
C       -1.53860000      -0.72180000       1.70890000
C       -0.09510000      -0.88780000       2.15060000
C        0.73340000      -0.54200000       1.16080000
C        2.12910000      -0.71340000       0.79230000
C        2.23500000      -0.68190000      -0.54840000
C        0.89310000      -0.47330000      -1.23110000
H        0.94610000       1.95560000      -0.01930000
H       -0.58550000       1.91740000      -0.91150000
H       -0.58700000       1.89530000       0.86150000
H       -2.22410000      -0.02150000      -0.29010000
H       -1.46380000      -1.61930000      -0.27360000
H       -2.00140000       0.17730000       2.14200000
H       -2.16880000      -1.56330000       2.01830000
H        0.18770000      -1.28680000       3.11790000
H        2.93850000      -0.91160000       1.48470000
H        3.15270000      -0.84640000      -1.10300000
H        0.54400000      -1.41940000      -1.67070000
H        0.94220000       0.25320000      -2.05010000
