20
Properties=species:S:1:pos:R:3 pbc="F F F"
C       -0.09490000       1.46990000       0.17970000
C        0.05780000      -0.01340000      -0.11010000
O        1.14070000      -0.49850000      -0.37380000
C       -1.19560000      -0.81780000      -0.04960000
C       -1.25290000      -2.15110000      -0.77900000
C       -1.26180000      -2.15960000       0.71400000
C       -0.04430000      -2.66770000       1.46090000
C       -2.58060000      -2.44020000       1.41130000
H        0.87910000       1.95880000       0.14110000
H       -0.76710000       1.93060000      -0.55360000
H       -0.54980000       1.62180000       1.16530000
H       -2.10950000      -0.23330000      -0.01150000
H       -2.16640000      -2.38700000      -1.31490000
H       -0.33230000      -2.43210000      -1.27960000
H        0.88120000      -2.40630000       0.94730000
H       -0.00500000      -2.25350000       2.47520000
H       -0.09550000      -3.75880000       1.55380000
H       -2.71900000      -3.51910000       1.54800000
H       -2.61090000      -1.97520000       2.40320000
H       -3.43230000      -2.06490000       0.83560000
