22
Properties=species:S:1:pos:R:3 pbc="F F F"
C       -0.84640000       0.33420000      -0.56350000
C        0.64380000       0.07480000      -0.32910000
O        1.36920000       1.30390000      -0.31170000
C        0.92530000      -0.64130000       0.99290000
C        2.23040000      -0.39500000       1.65850000
N        0.98200000       0.16880000       2.21880000
C        0.26050000      -1.98490000       1.12930000
C        0.14270000      -2.65170000       2.47370000
C       -1.09160000      -2.12180000       1.79230000
H       -1.26070000       0.95140000       0.23960000
H       -0.99660000       0.85920000      -1.51470000
H       -1.40960000      -0.60050000      -0.60650000
H        1.02340000      -0.56700000      -1.14220000
H        1.07320000       1.83390000      -1.05710000
H        2.67500000      -1.18840000       2.25240000
H        2.92670000       0.28990000       1.18830000
H        0.93720000       1.14950000       1.94860000
H        0.44560000      -2.64610000       0.28530000
H        0.28940000      -3.72480000       2.52580000
H        0.50030000      -2.09270000       3.33070000
H       -1.52800000      -1.22160000       2.21020000
H       -1.80520000      -2.82460000       1.37580000
