20
Properties=species:S:1:pos:R:3 pbc="F F F"
C       -0.06900000       1.59580000       0.02640000
C        0.04210000       0.07080000      -0.02150000
C        0.66430000      -0.46410000      -1.33110000
C        0.83460000      -1.99490000      -1.32100000
C        1.80370000      -2.50090000      -2.39120000
C        1.72920000      -3.97870000      -2.71380000
O        2.59040000      -1.75730000      -2.92870000
C       -0.13800000      -0.06080000      -2.49200000
N       -0.79890000       0.24600000      -3.38950000
H        0.91430000       2.06720000      -0.07560000
H       -0.70650000       1.97210000      -0.77910000
H       -0.49970000       1.92140000       0.97750000
H        0.66900000      -0.28460000       0.80480000
H       -0.94650000      -0.38280000       0.11640000
H        1.66020000      -0.02650000      -1.46690000
H        1.24700000      -2.30200000      -0.34960000
H       -0.13090000      -2.50380000      -1.41290000
H        1.70880000      -4.58180000      -1.79970000
H        0.79580000      -4.18400000      -3.25160000
H        2.57460000      -4.26810000      -3.33860000
