21
Properties=species:S:1:pos:R:3 pbc="F F F"
C       -0.09360000       1.36650000      -0.01990000
C        0.40420000      -0.07050000      -0.21780000
C        1.08740000      -0.61100000       1.01320000
O        0.23440000      -0.96850000       2.12130000
C        0.95930000      -1.99610000       1.47050000
C        0.33180000      -3.20550000       0.76820000
C        1.58890000      -4.02250000       1.16650000
O        2.43840000      -4.13070000       0.04020000
C        1.99670000      -2.88800000       2.15960000
H        0.73540000       2.04580000       0.20720000
H       -0.59390000       1.73850000      -0.91880000
H       -0.80330000       1.41460000       0.81130000
H       -0.43570000      -0.72420000      -0.47600000
H        1.11230000      -0.11310000      -1.05570000
H        1.98460000      -0.06670000       1.32030000
H       -0.57410000      -3.54670000       1.27640000
H        0.14870000      -3.13970000      -0.30620000
H        1.40030000      -5.00370000       1.61900000
H        3.28590000      -4.47520000       0.33980000
H        3.04290000      -2.57130000       2.12940000
H        1.71300000      -3.10980000       3.19310000
