20
Properties=species:S:1:pos:R:3 pbc="F F F"
C       -0.48130000       1.81140000       0.48250000
C       -0.16200000       0.40050000       0.02970000
C       -1.38100000      -0.31990000      -0.54140000
O       -1.14500000      -1.65040000      -0.97300000
C        1.18830000       0.09720000      -0.54100000
C        0.81720000      -0.47380000       0.81420000
C        1.52570000       0.04860000       2.02290000
N        1.50570000      -0.79590000       3.09760000
O        2.09310000       1.12890000       2.06620000
H        0.38690000       2.28220000       0.94430000
H       -0.79990000       2.42090000      -0.37140000
H       -1.29930000       1.81330000       1.21310000
H       -2.15060000      -0.39120000       0.23660000
H       -1.80380000       0.28980000      -1.35540000
H       -0.68860000      -1.61350000      -1.81860000
H        1.28580000      -0.60810000      -1.35980000
H        1.92520000       0.89240000      -0.52210000
H        0.55650000      -1.52700000       0.82450000
H        0.96860000      -1.64460000       3.10240000
H        1.91400000      -0.47380000       3.95950000
