19
Properties=species:S:1:pos:R:3 pbc="F F F"
C       -0.20180000       1.28580000      -1.34260000
N        0.05290000       0.09860000      -0.53340000
C        1.26170000      -0.62040000      -0.86710000
C        1.98310000      -1.09300000       0.39020000
O        1.65830000      -0.75090000       1.49920000
C        1.05930000      -1.86050000      -1.77350000
O        2.02210000      -2.43650000      -2.25150000
N       -0.23440000      -2.21470000      -1.92190000
C       -0.65370000      -3.36520000      -2.69330000
H        0.62540000       2.01470000      -1.33270000
H       -0.37790000       0.99500000      -2.38380000
H       -1.10390000       1.78510000      -0.97880000
H        0.08370000       0.32210000       0.45770000
H        2.00480000      -0.00690000      -1.40720000
H        2.83080000      -1.77650000       0.19780000
H       -0.89650000      -1.63330000      -1.42420000
H        0.23990000      -3.81270000      -3.13160000
H       -1.15100000      -4.10930000      -2.06110000
H       -1.34070000      -3.07580000      -3.49590000
