19
Properties=species:S:1:pos:R:3 pbc="F F F"
C       -0.01150000       1.58340000      -0.08390000
C       -0.20090000       0.07480000       0.10190000
C        0.66460000      -0.53050000       1.21120000
C        0.34510000       0.01170000       2.59780000
C        0.82780000      -2.07250000       1.12330000
C        2.29270000      -1.76350000       0.76520000
O        2.08350000      -0.34570000       0.90550000
H        1.04950000       1.81570000      -0.21330000
H       -0.54860000       1.93530000      -0.96970000
H       -0.38290000       2.15360000       0.77290000
H       -1.25330000      -0.15950000       0.31140000
H        0.05130000      -0.43570000      -0.83540000
H       -0.70290000      -0.17790000       2.85610000
H        0.97870000      -0.46720000       3.34970000
H        0.52210000       1.08970000       2.64740000
H        0.68170000      -2.60280000       2.06620000
H        0.23860000      -2.55850000       0.34320000
H        3.04760000      -2.13740000       1.46770000
H        2.59910000      -2.03550000      -0.25290000
