16
Properties=species:S:1:pos:R:3 pbc="F F F"
O       -0.06350000       0.03190000      -0.22050000
C       -0.02630000       1.22300000      -0.25350000
O        1.03110000       1.93120000       0.19710000
C        0.98680000       3.35540000       0.11490000
C        1.16480000       3.97760000       1.51820000
N        1.83950000       5.22370000       1.21280000
C        2.48010000       5.25500000      -0.00140000
O        3.17590000       6.15110000      -0.41610000
C        2.14380000       3.93310000      -0.70390000
H       -0.83630000       1.86760000      -0.64770000
H        0.02490000       3.66610000      -0.30930000
H        0.20810000       4.14300000       2.02290000
H        1.77060000       3.30470000       2.14020000
H        2.02490000       5.93710000       1.90020000
H        3.01520000       3.27240000      -0.63840000
H        1.91810000       4.09210000      -1.75900000
