19
Properties=species:S:1:pos:R:3 pbc="F F F"
C       -0.34370000       1.34290000      -0.16810000
N       -0.09570000      -0.08950000      -0.13760000
C        0.70320000      -0.62200000      -0.95320000
C        1.10610000      -2.07810000      -1.16290000
O        0.23790000      -2.75440000      -2.10290000
C        1.06720000      -2.37790000      -3.22480000
C        2.01230000      -1.56500000      -2.31430000
N        1.57080000      -0.20950000      -1.98670000
C        1.53120000       0.90700000      -2.90550000
H        0.58200000       1.93330000      -0.10200000
H       -0.87860000       1.65710000      -1.07560000
H       -0.96890000       1.61430000       0.68690000
H        1.39390000      -2.69640000      -0.31320000
H        1.53590000      -3.25790000      -3.68290000
H        0.51710000      -1.81830000      -3.99050000
H        3.09070000      -1.70230000      -2.40350000
H        0.87110000       0.72410000      -3.76650000
H        1.17950000       1.80100000      -2.39040000
H        2.53910000       1.10750000      -3.28590000
