23
Properties=species:S:1:pos:R:3 pbc="F F F"
C       -0.16470000       1.34120000       0.57210000
C        1.27710000       1.85770000       0.37320000
C        2.40360000       1.00800000       1.02080000
C        3.40650000       0.40700000      -0.00310000
C        2.64460000      -0.32170000      -1.01000000
C        1.74880000      -0.74680000      -1.69490000
C        0.43150000      -1.03400000      -2.24930000
C       -0.58290000      -0.03300000      -1.62900000
C       -0.56600000      -0.00140000      -0.07690000
H       -0.35480000       1.26130000       1.65130000
H       -0.85150000       2.11760000       0.20760000
H        1.47710000       1.97050000      -0.69770000
H        1.31280000       2.87070000       0.79040000
H        2.96860000       1.61180000       1.74000000
H        1.96730000       0.17990000       1.59050000
H        3.98840000       1.21170000      -0.47180000
H        4.12940000      -0.23580000       0.51310000
H        0.41690000      -0.95330000      -3.34270000
H        0.13240000      -2.06340000      -2.01170000
H       -0.35840000       0.96330000      -2.02620000
H       -1.58420000      -0.29040000      -1.99250000
H        0.09090000      -0.79470000       0.29550000
H       -1.56800000      -0.24710000       0.29350000
