20
Properties=species:S:1:pos:R:3 pbc="F F F"
C       -0.12520000       1.44670000      -0.31890000
C       -0.00360000      -0.04160000      -0.05300000
O        0.63160000      -0.63420000      -1.19870000
C        0.83350000      -1.96120000      -1.16310000
N        0.50130000      -2.66590000      -0.16010000
C        1.50440000      -2.40840000      -2.44340000
C        2.83010000      -1.74900000      -2.74960000
C        1.15970000      -3.72090000      -3.00510000
O        0.60520000      -2.52500000      -3.55810000
H        0.85960000       1.89970000      -0.46500000
H       -0.72640000       1.63550000      -1.21260000
H       -0.60720000       1.93730000       0.53190000
H        0.59760000      -0.25580000       0.83680000
H       -0.97930000      -0.51570000       0.09510000
H        0.75090000      -3.64060000      -0.31080000
H        3.56330000      -1.97080000      -1.96700000
H        3.21580000      -2.10680000      -3.70720000
H        2.70450000      -0.66490000      -2.80170000
H        1.88850000      -4.23480000      -3.63090000
H        0.44820000      -4.36960000      -2.49660000
