19
Properties=species:S:1:pos:R:3 pbc="F F F"
O       -0.19120000       1.46490000      -0.08850000
C       -0.06320000       0.05120000      -0.04560000
C       -1.40700000      -0.63340000      -0.16550000
C       -1.92020000      -0.76280000      -1.59720000
C       -1.29090000       0.07540000      -2.70130000
C        0.25520000       0.13780000      -2.56040000
C        0.68590000      -0.55790000      -1.26630000
O        0.24990000      -1.92270000      -1.30160000
C       -1.12350000      -1.87360000      -0.96950000
H        0.67010000       1.84920000       0.10350000
H        0.42390000      -0.26170000       0.88960000
H       -2.09450000      -0.61600000       0.67090000
H       -2.98810000      -0.93720000      -1.68970000
H       -1.56410000      -0.34910000      -3.67330000
H       -1.71480000       1.08350000      -2.66730000
H        0.74550000      -0.37410000      -3.39330000
H        0.60170000       1.17410000      -2.55870000
H        1.77310000      -0.56720000      -1.15030000
H       -1.53530000      -2.85320000      -0.76160000
