17
Properties=species:S:1:pos:R:3 pbc="F F F"
C        0.01980000       1.48360000      -0.08740000
C        1.36750000       0.78630000       0.02230000
C        1.98180000       0.47970000       1.37000000
C        0.79750000      -0.12800000       2.17960000
O       -0.11430000      -0.68940000       1.22040000
C        0.06400000      -0.01040000       0.02490000
C        0.52700000      -0.76360000      -1.25780000
O        0.75270000       0.22370000      -2.26720000
C        1.76810000       0.01630000      -1.27960000
H       -0.31150000       2.01430000       0.79880000
H       -0.25530000       1.94500000      -1.02690000
H        2.77650000      -0.26400000       1.24360000
H        2.41710000       1.33910000       1.88910000
H        1.09400000      -0.92280000       2.87000000
H        0.28790000       0.65250000       2.76040000
H        0.26710000      -1.76890000      -1.56650000
H        2.76960000      -0.20270000      -1.63270000
