20
Properties=species:S:1:pos:R:3 pbc="F F F"
C       -0.06350000       1.59640000      -0.08280000
C       -0.02830000       0.06230000       0.00590000
C        1.11900000      -0.55960000      -0.86660000
C        1.99780000      -0.66290000       0.40640000
C        0.71640000      -0.52160000       1.26630000
C        0.75550000       0.27580000       2.55470000
O        1.55400000      -0.46240000       3.46760000
C       -1.36270000      -0.48190000      -0.22250000
N       -2.41690000      -0.92410000      -0.39900000
H        0.93900000       2.01220000       0.04940000
H       -0.43140000       1.90640000      -1.06500000
H       -0.72120000       2.02880000       0.67630000
H        0.83960000      -1.53870000      -1.26010000
H        1.47400000       0.06520000      -1.68910000
H        2.58160000      -1.57400000       0.53880000
H        2.66590000       0.19530000       0.52310000
H        0.31090000      -1.51210000       1.49110000
H        1.18130000       1.27540000       2.37620000
H       -0.26920000       0.41570000       2.93630000
H        1.60890000       0.03250000       4.29030000
