15
Properties=species:S:1:pos:R:3 pbc="F F F"
C       -0.11020000       1.41860000      -0.14780000
C        1.28150000       0.91170000       0.07010000
C        0.11940000      -0.06540000       0.07700000
C       -0.29840000      -0.66660000       1.34730000
N       -0.29320000      -0.14350000       2.53590000
C       -0.78780000      -1.14610000       3.36040000
C       -1.06970000      -2.23720000       2.61430000
O       -0.75910000      -1.94410000       1.31240000
H       -0.58240000       1.95670000       0.66560000
H       -0.40400000       1.73020000      -1.14370000
H        1.96110000       0.86890000      -0.77350000
H        1.74400000       1.10950000       1.02980000
H        0.01210000      -0.72620000      -0.77460000
H       -0.90200000      -1.00410000       4.42340000
H       -1.45910000      -3.22120000       2.80770000
