16
Properties=species:S:1:pos:R:3 pbc="F F F"
N       -0.44140000       1.14270000      -0.45410000
C       -0.51830000      -0.02870000      -0.00130000
O       -1.13240000      -0.98980000      -0.74010000
C       -1.04870000      -2.29870000      -0.25670000
C       -1.85000000      -2.70890000       0.95690000
C       -2.28930000      -3.14000000      -0.41340000
O       -3.46860000      -2.53920000      -0.87960000
C       -3.47990000      -2.13390000      -2.17910000
O       -4.45380000      -1.66680000      -2.68030000
H        0.02840000       1.74800000       0.21590000
H       -0.14410000      -0.39930000       0.96090000
H       -0.08920000      -2.77850000      -0.43590000
H       -1.43670000      -3.44410000       1.63720000
H       -2.46670000      -1.94150000       1.41110000
H       -2.17340000      -4.17900000      -0.70800000
H       -2.51280000      -2.29300000      -2.68610000
