21
Properties=species:S:1:pos:R:3 pbc="F F F"
O       -0.07920000       1.43550000      -0.10580000
C        0.00600000       0.02110000      -0.00860000
C       -1.41370000      -0.53210000       0.08150000
C       -1.38740000      -2.06860000       0.02520000
C       -0.57310000      -2.53570000      -1.16400000
C       -0.66730000      -3.92970000      -1.68760000
C       -1.22790000      -2.77830000      -2.50480000
O        0.72660000      -1.99620000      -1.18470000
C        0.71290000      -0.57670000      -1.23350000
H        0.81360000       1.79400000      -0.07080000
H        0.56540000      -0.27840000       0.89290000
H       -1.89690000      -0.17610000       0.99660000
H       -1.98700000      -0.13380000      -0.76500000
H       -0.93350000      -2.46680000       0.94200000
H       -2.40460000      -2.46900000      -0.03150000
H        0.25560000      -4.38020000      -2.03430000
H       -1.35920000      -4.61460000      -1.20920000
H       -2.30470000      -2.67660000      -2.58910000
H       -0.67100000      -2.48390000      -3.38710000
H        0.20690000      -0.21660000      -2.14330000
H        1.76130000      -0.26130000      -1.27520000
