15
Properties=species:S:1:pos:R:3 pbc="F F F"
O        0.25970000       0.79440000       1.29200000
C        0.14650000       1.46550000       0.29260000
N        1.17490000       1.76770000      -0.55590000
C        2.47350000       1.18360000      -0.40510000
C        3.64590000       1.90950000      -0.96270000
C        3.49670000       1.79350000       0.55090000
C        3.18050000       3.02010000       1.32010000
O        3.64290000       3.27600000       2.40330000
H       -0.80830000       1.92030000      -0.03850000
H        0.95380000       2.22560000      -1.42680000
H        2.48440000       0.09750000      -0.43110000
H        4.43950000       1.34520000      -1.43700000
H        3.46850000       2.89100000      -1.39280000
H        4.14380000       1.09700000       1.07120000
H        2.47930000       3.71850000       0.81070000
