16
Properties=species:S:1:pos:R:3 pbc="F F F"
C        0.05780000       1.37700000      -0.05480000
N       -0.08770000      -0.05070000       0.11900000
C       -1.23740000      -0.73450000       0.02840000
N       -2.38190000      -0.02540000      -0.09900000
H       -3.26250000      -0.50930000      -0.08800000
H       -2.39790000       0.95300000       0.13050000
C       -1.20030000      -2.15900000       0.03180000
C       -2.40940000      -2.96260000       0.08550000
O       -2.49840000      -4.16810000       0.02040000
N        0.10610000      -2.63380000       0.02170000
O        0.30480000      -3.84330000       0.03730000
H        1.12150000       1.61530000      -0.08360000
H       -0.39560000       1.72370000      -0.99210000
H       -0.38230000       1.94100000       0.77870000
H        0.71880000      -0.66870000       0.13730000
H       -3.35020000      -2.36130000       0.22490000
