17
Properties=species:S:1:pos:R:3 pbc="F F F"
C        0.05030000       1.54880000      -0.07230000
C        0.00060000       0.05100000       0.24630000
C       -1.38850000      -0.53860000       0.04200000
N       -1.77240000      -0.88750000      -1.32890000
C       -1.64230000      -1.98130000      -0.35790000
C       -0.51450000      -2.93970000      -0.58360000
O       -0.47800000      -4.03360000      -0.08330000
C       -2.41960000       0.02800000       0.89100000
N       -3.23930000       0.49900000       1.55770000
H        1.06280000       1.93520000       0.07160000
H       -0.24010000       1.73250000      -1.11100000
H       -0.62240000       2.11750000       0.57690000
H        0.69710000      -0.48810000      -0.40030000
H        0.30980000      -0.13260000       1.28130000
H       -2.75080000      -0.68060000      -1.51280000
H       -2.53480000      -2.44150000       0.05770000
H        0.27980000      -2.57030000      -1.26520000
