19
Properties=species:S:1:pos:R:3 pbc="F F F"
C       -0.37460000       1.49570000       0.01460000
C        0.14620000       0.06160000       0.00080000
O        1.31830000      -0.21420000      -0.01220000
N       -0.89120000      -0.87480000       0.00540000
C       -0.83560000      -2.27660000      -0.00330000
N        0.27400000      -2.89480000      -0.01820000
C       -2.23650000      -2.87270000       0.00730000
C       -2.29280000      -4.39370000       0.00110000
O       -3.66440000      -4.75210000       0.01280000
H        0.47910000       2.17200000       0.00810000
H       -1.00040000       1.69580000      -0.86190000
H       -0.97920000       1.68610000       0.90800000
H       -1.82090000      -0.48630000       0.01690000
H        0.12250000      -3.90150000      -0.02250000
H       -2.77710000      -2.50940000       0.89100000
H       -2.79350000      -2.50160000      -0.86290000
H       -1.78360000      -4.78340000      -0.89410000
H       -1.76630000      -4.79120000       0.88280000
H       -3.72510000      -5.71180000       0.00910000
