15
Properties=species:S:1:pos:R:3 pbc="F F F"
O       -0.06910000       1.37990000      -0.03400000
C        0.02480000       0.01120000      -0.03070000
C        0.40120000      -0.98700000       1.11930000
C       -1.02920000      -1.03730000       1.66430000
C       -1.17380000      -0.95460000       0.14130000
N        0.02970000      -1.92180000      -0.05800000
C        0.67470000      -0.94740000      -1.04910000
C        0.15730000      -0.99810000      -2.40750000
N       -0.26010000      -1.01420000      -3.48550000
H        0.81260000       1.76410000       0.03440000
H        1.36070000      -1.10360000       1.62550000
H       -1.33480000      -1.97890000       2.12560000
H       -1.36790000      -0.17120000       2.23470000
H       -2.05400000      -1.03870000      -0.49480000
H        1.76730000      -1.01540000      -1.05170000
