16
Properties=species:S:1:pos:R:3 pbc="F F F"
O        0.05390000       1.53870000      -0.06590000
C        0.06420000       0.14810000       0.17720000
C       -1.33730000      -0.46320000       0.02140000
C       -2.23240000       0.16250000       0.99380000
N       -2.83600000       0.73680000       1.79580000
C       -1.99210000      -0.70430000      -1.38250000
C       -1.03530000      -1.88980000      -1.64410000
C       -1.59040000      -1.99490000      -0.20430000
O       -2.92600000      -1.65410000      -0.73650000
H       -0.46800000       1.96100000       0.62680000
H        0.75500000      -0.28180000      -0.55000000
H        0.44590000      -0.09270000       1.18060000
H       -2.40710000       0.03630000      -2.06380000
H       -1.44140000      -2.63780000      -2.32370000
H        0.02640000      -1.70570000      -1.80780000
H       -1.52500000      -2.80200000       0.52440000
