20
Properties=species:S:1:pos:R:3 pbc="F F F"
C        0.15750000       1.64760000       0.18510000
C        0.10390000       0.13120000       0.09120000
C        1.02420000      -0.59610000      -0.93090000
C        1.24980000      -1.71440000       0.12320000
C        2.64290000      -2.33500000       0.24920000
C        2.70120000      -3.36250000       1.35590000
O        3.44360000      -3.32330000       2.30290000
C        0.76050000      -0.72080000       1.21440000
H        1.18620000       1.99590000       0.33270000
H       -0.22570000       2.11730000      -0.72780000
H       -0.44220000       2.01610000       1.02500000
H       -0.93220000      -0.19510000      -0.05600000
H        0.60270000      -0.88150000      -1.89840000
H        1.94440000      -0.02690000      -1.10570000
H        0.50690000      -2.50910000      -0.01620000
H        2.89320000      -2.84650000      -0.69240000
H        3.40440000      -1.57160000       0.43720000
H        1.96720000      -4.19620000       1.24050000
H        1.60380000      -0.19080000       1.67160000
H        0.12070000      -1.10560000       2.01260000
