10
Properties=species:S:1:pos:R:3 pbc="F F F"
O       -0.05520000      -0.03000000      -0.00140000
C        0.00790000       1.17120000       0.00670000
C        1.26540000       1.96150000      -0.00050000
N        2.44950000       1.38010000      -0.01750000
O        3.36350000       2.40790000      -0.01900000
C        2.71770000       3.58720000      -0.00310000
C        1.37800000       3.38300000       0.00910000
H       -0.90560000       1.80540000       0.02010000
H        3.34420000       4.46500000      -0.00290000
H        0.58890000       4.11630000       0.02290000
