11
Properties=species:S:1:pos:R:3 pbc="F F F"
O        0.10800000       1.35030000       0.09900000
C        0.07420000       0.01000000       0.03210000
N        0.09360000      -0.59370000      -1.13780000
C        0.05770000      -1.93690000      -1.13940000
C        0.00250000      -2.66030000       0.03710000
N       -0.01720000      -2.04220000       1.23280000
C        0.01780000      -0.74330000       1.22570000
F       -0.00030000      -0.10160000       2.38450000
H        0.14430000       1.66870000      -0.81420000
H        0.07390000      -2.42780000      -2.10700000
H       -0.02660000      -3.74440000       0.04030000
