22
Properties=species:S:1:pos:R:3 pbc="F F F"
C        0.18310000       1.52430000       0.26550000
C       -0.00180000       0.01900000       0.00760000
C        0.55110000      -0.76160000       1.21680000
C       -1.50620000      -0.27290000      -0.16070000
C        0.74080000      -0.45410000      -1.26910000
C        0.86300000       0.40810000      -2.51940000
C        2.08540000       0.11790000      -1.70080000
C        0.58530000      -1.86680000      -1.53770000
N        0.45870000      -2.99770000      -1.74940000
H        1.23060000       1.79650000       0.42450000
H       -0.21760000       2.14040000      -0.54480000
H       -0.36060000       1.79790000       1.17490000
H        0.02610000      -0.46840000       2.13150000
H        0.42590000      -1.84060000       1.08820000
H        1.61790000      -0.56030000       1.36080000
H       -1.92200000       0.28030000      -1.00940000
H       -1.69120000      -1.33780000      -0.32920000
H       -2.05490000       0.02600000       0.73820000
H        0.75310000      -0.08600000      -3.47720000
H        0.44160000       1.40460000      -2.47660000
H        2.50030000       0.91590000      -1.09790000
H        2.81810000      -0.57620000      -2.09430000
