11
Properties=species:S:1:pos:R:3 pbc="F F F"
O        0.09740000       1.33440000      -0.29940000
C        0.02060000       0.02790000       0.22810000
C       -1.38160000      -0.50220000       0.16860000
N       -1.98230000      -1.11140000       1.15280000
O       -3.24520000      -1.42180000       0.61970000
C       -3.24720000      -0.94610000      -0.62340000
N       -2.14340000      -0.37060000      -0.97760000
H       -0.34370000       1.32030000      -1.15720000
H        0.68120000      -0.67000000      -0.31140000
H        0.35410000       0.06620000       1.26750000
H       -4.14870000      -1.08260000      -1.20260000
