20
Properties=species:S:1:pos:R:3 pbc="F F F"
C        0.00130000       1.61650000       0.23740000
C       -0.01920000       0.09720000      -0.01760000
C       -1.39460000      -0.49060000      -0.07750000
C       -2.20770000      -0.80220000      -1.15560000
C       -1.90410000      -0.66300000      -2.61670000
C       -3.43320000      -1.29570000      -0.61350000
O       -4.52380000      -1.73080000      -1.31510000
C       -3.34880000      -1.27520000       0.75610000
N       -2.09760000      -0.77820000       1.06430000
H        1.02820000       1.99420000       0.28150000
H       -0.52740000       2.15070000      -0.55760000
H       -0.49090000       1.86390000       1.18350000
H        0.49930000      -0.11800000      -0.95780000
H        0.56290000      -0.40770000       0.76550000
H       -2.06170000      -1.60440000      -3.16100000
H       -2.52720000       0.09900000      -3.10480000
H       -0.86290000      -0.37380000      -2.78340000
H       -4.33890000      -1.62590000      -2.25280000
H       -4.05230000      -1.57420000       1.51380000
H       -1.74090000      -0.66790000       1.99650000
