17
Properties=species:S:1:pos:R:3 pbc="F F F"
O       -0.16400000       1.27820000       0.12420000
C       -0.05000000      -0.08810000       0.04340000
C       -0.35720000      -0.96040000       1.19180000
C       -1.34090000      -1.02220000      -0.00030000
C       -2.62010000      -0.33930000       0.13750000
O       -2.79010000       0.62680000       0.86680000
C       -1.02810000      -2.04240000      -1.03640000
C        0.17530000      -1.84640000      -1.58230000
C        0.86800000      -0.60670000      -1.05580000
H       -0.96960000       1.47290000       0.63430000
H        0.21910000      -1.86390000       1.36230000
H       -0.74860000      -0.46910000       2.07730000
H       -3.44650000      -0.70950000      -0.50420000
H       -1.70240000      -2.85580000      -1.28190000
H        0.63880000      -2.49250000      -2.31870000
H        0.97730000       0.16010000      -1.83220000
H        1.87360000      -0.81990000      -0.67410000
