15
Properties=species:S:1:pos:R:3 pbc="F F F"
O        0.00110000      -0.04540000       0.05040000
C        0.02440000       1.16260000       0.09800000
C        1.26670000       1.95480000       0.05160000
C        1.33190000       3.29890000       0.10580000
C        2.75540000       3.74870000      -0.01900000
O        3.14470000       4.88800000      -0.11170000
C        3.59190000       2.48960000      -0.05270000
C        3.49270000       1.59820000       1.17830000
C        2.62460000       1.33240000      -0.02970000
H       -0.90860000       1.76100000       0.16980000
H        0.50420000       3.98800000       0.21910000
H        4.51250000       2.49070000      -0.62090000
H        4.33210000       0.93430000       1.35460000
H        3.02230000       1.98900000       2.07420000
H        2.76350000       0.42560000      -0.60310000
