17
Properties=species:S:1:pos:R:3 pbc="F F F"
O       -0.01650000      -0.07660000      -0.33180000
C        0.06140000       1.10300000      -0.08960000
O        1.20340000       1.80440000      -0.03590000
C        2.40900000       1.04810000      -0.30820000
C        3.57500000       1.98430000      -0.21120000
C        4.17170000       2.30580000       1.13510000
C        4.92550000       1.42820000       0.17000000
C       -1.07940000       1.95160000       0.18560000
C       -2.06110000       2.60790000       0.40730000
H        2.48480000       0.23210000       0.41820000
H        2.31790000       0.59830000      -1.30210000
H        3.56810000       2.78520000      -0.94430000
H        4.53020000       3.31440000       1.30560000
H        3.72820000       1.83820000       2.00770000
H        4.99560000       0.36860000       0.39320000
H        5.79910000       1.83320000      -0.32760000
H       -2.92920000       3.18870000       0.60320000
