17
Properties=species:S:1:pos:R:3 pbc="F F F"
C        0.03830000       1.53810000       0.21250000
C       -0.03690000       0.03530000      -0.11220000
C       -1.42480000      -0.52250000      -0.07540000
C       -2.11750000      -1.05230000      -1.09150000
N       -3.39440000      -1.47860000      -0.68750000
C       -3.60460000      -1.24740000       0.65940000
O       -4.60530000      -1.51440000       1.28310000
C       -2.30370000      -0.58970000       1.15520000
H        1.07260000       1.89330000       0.17240000
H       -0.55150000       2.12160000      -0.50130000
H       -0.34620000       1.74940000       1.21540000
H        0.39250000      -0.14460000      -1.10500000
H        0.60050000      -0.50890000       0.59970000
H       -1.81520000      -1.18180000      -2.12170000
H       -4.08390000      -1.91390000      -1.27660000
H       -1.87460000      -1.19340000       1.96400000
H       -2.53690000       0.38960000       1.58860000
