20
Properties=species:S:1:pos:R:3 pbc="F F F"
C       -0.01060000       1.56130000       0.09800000
C       -0.03730000       0.03800000       0.09310000
C       -1.43770000      -0.54850000      -0.06980000
O       -2.05520000      -0.14890000      -1.27950000
O        0.70020000      -0.47090000      -1.05040000
C        2.03920000      -0.58620000      -0.94360000
N        2.68570000      -0.28200000       0.09860000
C        2.60080000      -1.12820000      -2.24290000
O        3.99950000      -1.24740000      -2.10370000
H        1.01840000       1.92230000       0.14050000
H       -0.50570000       1.95240000      -0.79400000
H       -0.54280000       1.93670000       0.97810000
H        0.43170000      -0.35450000       1.00000000
H       -1.37730000      -1.64520000       0.00500000
H       -2.07680000      -0.19140000       0.74430000
H       -1.44790000      -0.39740000      -1.98530000
H        3.67580000      -0.46540000      -0.06000000
H        2.11690000      -2.09440000      -2.45270000
H        2.31770000      -0.44070000      -3.05460000
H        4.36130000      -1.58670000      -2.92670000
