22
Properties=species:S:1:pos:R:3 pbc="F F F"
C        0.08210000       1.62280000       0.02530000
C       -0.04130000       0.09650000      -0.00890000
C        0.64650000      -0.52540000      -1.23030000
C        0.64860000      -2.06380000      -1.26330000
C       -0.76150000      -2.65900000      -1.35560000
C        1.53440000      -2.55410000      -2.43760000
C        1.74110000      -3.99710000      -2.46090000
C        1.90890000      -5.18780000      -2.45660000
H        1.13200000       1.93520000       0.05360000
H       -0.37240000       2.07670000      -0.86250000
H       -0.41470000       2.04400000       0.90480000
H        0.39610000      -0.32690000       0.90520000
H       -1.10220000      -0.17890000       0.00520000
H        0.17110000      -0.14660000      -2.14720000
H        1.68640000      -0.17100000      -1.26180000
H        1.11510000      -2.42440000      -0.33630000
H       -0.71810000      -3.74930000      -1.42610000
H       -1.36550000      -2.40300000      -0.48100000
H       -1.28440000      -2.28480000      -2.24470000
H        1.08090000      -2.23480000      -3.38640000
H        2.51030000      -2.05430000      -2.38520000
H        2.06230000      -6.23830000      -2.46380000
