21
Properties=species:S:1:pos:R:3 pbc="F F F"
C       -1.15880000       1.38410000       0.14540000
C       -1.12020000       0.01760000      -0.55190000
C        0.20380000      -0.22740000      -1.24660000
O        1.37260000      -0.37010000      -0.41620000
C        0.95140000      -1.51030000      -1.16090000
C        0.49100000      -2.72810000      -0.40190000
C        0.42250000       0.59440000      -2.50690000
C        1.84160000       1.01000000      -2.83580000
O       -0.52330000       0.91140000      -3.19410000
H       -0.35610000       1.46390000       0.88460000
H       -1.04420000       2.19890000      -0.57600000
H       -2.11280000       1.52810000       0.66030000
H       -1.31170000      -0.77260000       0.17730000
H       -1.90340000      -0.03610000      -1.31390000
H        1.60760000      -1.74470000      -2.00280000
H       -0.11350000      -2.46660000       0.46750000
H       -0.09230000      -3.38530000      -1.05540000
H        1.36130000      -3.29240000      -0.05060000
H        2.53330000       0.16330000      -2.82110000
H        1.85510000       1.49270000      -3.81340000
H        2.19850000       1.70720000      -2.07000000
