21
Properties=species:S:1:pos:R:3 pbc="F F F"
C        0.03590000       1.37560000      -0.06840000
O       -0.05810000      -0.01660000       0.13500000
C       -1.36340000      -0.56780000       0.08570000
C       -2.27290000      -0.01650000       1.17560000
C       -1.94560000      -0.65890000      -1.36090000
N       -1.41700000      -2.02960000      -1.46470000
C       -2.22510000      -3.03650000      -2.10820000
C       -1.21440000      -2.10700000      -0.00680000
H        1.10060000       1.60980000      -0.14570000
H       -0.45800000       1.69600000      -0.99760000
H       -0.38680000       1.95510000       0.76450000
H       -2.50790000       1.04030000       1.01390000
H       -3.21910000      -0.56340000       1.20020000
H       -1.79110000      -0.11430000       2.15410000
H       -3.04730000      -0.60540000      -1.36650000
H       -1.55530000       0.03990000      -2.10930000
H       -2.34390000      -2.79630000      -3.17040000
H       -1.73020000      -4.01140000      -2.04000000
H       -3.23730000      -3.13740000      -1.66700000
H       -0.24420000      -2.50660000       0.30470000
H       -2.02010000      -2.63760000       0.52640000
