14
Properties=species:S:1:pos:R:3 pbc="F F F"
O        0.14370000       0.15860000       0.72330000
C        0.17530000       1.07990000      -0.05140000
C        1.29070000       2.07410000      -0.12980000
C        1.55830000       2.96210000       1.10710000
C        0.76760000       2.83650000       2.29770000
C        0.09910000       2.78770000       3.29410000
N        2.46830000       1.92970000       0.67960000
C        2.86780000       0.80750000       1.41500000
O        3.21620000       0.85170000       2.56310000
H       -0.64530000       1.26480000      -0.77670000
H        1.42640000       2.54120000      -1.10420000
H        1.89580000       3.97260000       0.88480000
H       -0.47700000       2.72050000       4.18420000
H        2.92350000      -0.09170000       0.77870000
