19
Properties=species:S:1:pos:R:3 pbc="F F F"
C       -0.02820000       1.55180000       0.17280000
C        1.47300000       1.61900000      -0.33110000
C        1.24970000       0.18800000      -0.85170000
O        0.35790000       0.18320000      -2.03930000
C       -0.12760000      -0.88300000      -1.18120000
C        1.35820000      -1.36990000      -0.87930000
C        1.41340000      -1.89850000       0.54800000
C        0.47410000      -0.87730000       1.27310000
C        0.04940000      -0.01090000       0.09790000
H       -0.22110000       1.95850000       1.16700000
H       -0.72080000       1.99130000      -0.54310000
H        1.73800000       2.37200000      -1.07660000
H        2.18320000       1.65910000       0.49880000
H       -0.96300000      -1.49140000      -1.54550000
H        1.90690000      -1.87750000      -1.67360000
H        1.04310000      -2.92680000       0.60460000
H        2.42780000      -1.89510000       0.95800000
H       -0.36890000      -1.36540000       1.77290000
H        1.00820000      -0.30160000       2.03670000
