17
Properties=species:S:1:pos:R:3 pbc="F F F"
O        0.22610000       1.42280000      -0.17440000
C        0.05230000       0.05030000      -0.05610000
C       -1.35330000      -0.65840000      -0.00040000
C       -0.64300000      -1.76940000       0.84010000
C        0.12810000      -2.69940000      -0.13160000
O        0.44830000      -2.01250000      -1.32950000
C        0.89300000      -0.68310000      -1.13770000
C        0.29600000      -0.64280000       1.27610000
O        0.81440000      -0.28580000       2.29860000
H        0.35180000       1.77720000       0.71490000
H       -2.07330000      -0.08780000       0.58840000
H       -1.77430000      -0.96160000      -0.95910000
H       -1.18700000      -2.32060000       1.60710000
H        1.03060000      -3.09450000       0.36010000
H       -0.49700000      -3.54670000      -0.42860000
H        0.76230000      -0.16240000      -2.09110000
H        1.95800000      -0.64150000      -0.86300000
