18
Properties=species:S:1:pos:R:3 pbc="F F F"
O       -0.04320000       0.40170000       1.74670000
C        0.03120000       1.20850000       0.85360000
C        1.39060000       1.91420000       0.60350000
C        1.64950000       2.28320000      -0.78210000
N        1.83440000       2.56470000      -1.88780000
C       -1.12120000       1.57920000      -0.03970000
C       -1.27600000       0.70970000      -1.34410000
C       -2.80540000       0.68080000      -1.08560000
C       -2.54250000       1.12700000       0.37720000
H        1.39390000       2.82440000       1.21790000
H        2.18380000       1.26630000       0.98500000
H       -1.06920000       2.63940000      -0.30480000
H       -0.90920000       1.15480000      -2.26930000
H       -0.82060000      -0.27620000      -1.21760000
H       -3.32600000       1.45000000      -1.66250000
H       -3.31700000      -0.27190000      -1.23600000
H       -2.47960000       0.28340000       1.06790000
H       -3.19750000       1.88920000       0.80410000
