17
Properties=species:S:1:pos:R:3 pbc="F F F"
N       -0.02160000       1.27220000       0.34380000
C        0.01070000       0.08340000      -0.32790000
O        0.98160000      -0.25500000      -0.98540000
C       -1.22940000      -0.74570000      -0.18460000
C       -1.56580000      -1.72060000      -1.29710000
C       -1.14760000      -2.25370000       0.03400000
C        0.16230000      -2.97890000       0.21280000
O       -0.08090000      -4.35080000      -0.08750000
H        0.76690000       1.89060000       0.25000000
H       -0.82940000       1.58790000       0.84970000
H       -2.06300000      -0.25380000       0.30730000
H       -2.60200000      -1.80420000      -1.60350000
H       -0.83430000      -1.76950000      -2.09620000
H       -1.94170000      -2.64910000       0.66200000
H        0.92110000      -2.54210000      -0.44470000
H        0.51000000      -2.86240000       1.25280000
H        0.76340000      -4.80990000      -0.05760000
