18
Properties=species:S:1:pos:R:3 pbc="F F F"
C       -0.14740000       1.35180000      -0.04640000
N        0.03680000      -0.09200000       0.02640000
C        1.41830000      -0.55940000      -0.18600000
C        0.81960000      -0.56670000       1.18140000
C        0.68110000      -2.07120000       1.45430000
C        2.06620000      -2.59080000       0.90150000
C        1.53080000      -2.06080000      -0.48650000
C        0.18080000      -2.56580000       0.07620000
O       -0.68740000      -3.28560000      -0.30780000
H        0.71350000       1.92800000       0.33360000
H       -0.31850000       1.63910000      -1.08830000
H       -1.03010000       1.63040000       0.53710000
H        2.18090000       0.14630000      -0.49810000
H        1.10490000       0.13310000       1.95980000
H        0.25210000      -2.41100000       2.39400000
H        2.95330000      -2.08830000       1.29260000
H        2.17850000      -3.67600000       0.94480000
H        1.93150000      -2.39040000      -1.44210000
