21
Properties=species:S:1:pos:R:3 pbc="F F F"
C       -0.01450000       1.52990000      -0.11150000
C       -0.03280000       0.03800000       0.10880000
O        1.20800000      -0.66850000      -0.05420000
C        0.59910000      -0.63740000       1.24950000
C        1.36860000       0.06230000       2.37150000
C        1.90870000      -1.08910000       3.25780000
C        0.94670000      -2.25090000       3.03790000
C       -0.52770000      -1.96280000       3.13880000
C        0.14560000      -1.96710000       1.78350000
H        0.83090000       2.00030000       0.39510000
H        0.05830000       1.75670000      -1.18050000
H       -0.94030000       1.98090000       0.26280000
H       -0.88130000      -0.47340000      -0.35280000
H        2.16560000       0.68830000       1.96770000
H        0.69750000       0.71350000       2.94200000
H        2.90830000      -1.38370000       2.91970000
H        1.99480000      -0.79560000       4.30920000
H        1.28950000      -3.25450000       3.26260000
H       -1.18230000      -2.79950000       3.35710000
H       -0.86410000      -1.02150000       3.56240000
H       -0.10670000      -2.73540000       1.06250000
