22
Properties=species:S:1:pos:R:3 pbc="F F F"
C        0.60970000       1.47010000      -0.00100000
C       -0.01780000       0.06970000      -0.03280000
C        0.47940000      -0.83220000      -1.20510000
N        1.30830000      -1.93000000      -0.67250000
C        2.47410000      -1.47130000       0.10210000
C        1.23190000      -1.87560000       0.80690000
C        1.13290000      -3.22310000       1.48640000
O       -0.11890000      -3.83890000       1.22920000
C        0.26190000      -0.78240000       1.23540000
H        1.69640000       1.44060000       0.12930000
H        0.40530000       2.01030000      -0.93170000
H        0.19730000       2.06240000       0.82280000
H       -1.09860000       0.20960000      -0.13680000
H       -0.37020000      -1.29170000      -1.72100000
H        1.04410000      -0.26680000      -1.95490000
H        3.32630000      -2.14620000       0.07740000
H        2.73930000      -0.41850000       0.07120000
H        1.96660000      -3.86140000       1.15820000
H        1.20430000      -3.11330000       2.57430000
H       -0.18600000      -3.89950000       0.26860000
H        0.65590000      -0.17610000       2.05800000
H       -0.65290000      -1.26550000       1.59160000
