20
Properties=species:S:1:pos:R:3 pbc="F F F"
C       -0.41860000       1.54950000       0.35370000
C       -0.12420000       0.06140000       0.19420000
C        0.25010000      -0.47030000      -1.19730000
C        1.58950000       0.08740000      -1.63860000
C        1.57280000      -1.01990000      -0.64330000
O        2.27240000      -2.18050000      -0.92590000
C        1.22790000      -0.53440000       0.76950000
C        2.22420000       0.34600000       1.51530000
H        0.37170000       2.17720000      -0.06830000
H       -1.35210000       1.81150000      -0.15640000
H       -0.53030000       1.82150000       1.40910000
H       -0.96680000      -0.50690000       0.60140000
H       -0.43880000      -0.90340000      -1.91310000
H        1.89570000      -0.23540000      -2.62850000
H        1.90480000       1.09630000      -1.38400000
H        1.83910000      -2.90970000      -0.46790000
H        0.98260000      -1.40140000       1.39620000
H        2.51440000       1.22450000       0.93160000
H        1.80960000       0.70010000       2.46550000
H        3.13720000      -0.21600000       1.73950000
