15
Properties=species:S:1:pos:R:3 pbc="F F F"
C        0.02470000       1.56390000       0.04300000
C        0.09170000       0.05500000       0.06260000
C        1.31920000      -0.74010000      -0.16260000
O        2.47840000      -0.03080000       0.33640000
C        2.00090000      -0.12240000       1.64060000
O        2.55370000       0.20090000       2.63640000
C        0.69670000      -0.78410000       1.23360000
C       -0.02250000      -1.77600000       1.94560000
C       -0.63530000      -2.61140000       2.55650000
H        0.97440000       2.01310000       0.33930000
H       -0.21170000       1.91190000      -0.96800000
H       -0.75790000       1.92420000       0.71650000
H       -0.80250000      -0.44910000      -0.29980000
H        1.49700000      -1.54000000      -0.86760000
H       -1.16720000      -3.35200000       3.10100000
