19
Properties=species:S:1:pos:R:3 pbc="F F F"
O       -0.24130000       0.06740000      -0.05170000
C       -0.01360000       1.24840000      -0.00240000
C        1.35270000       1.87810000      -0.13140000
C        1.40180000       2.91570000      -1.26540000
C        2.72160000       3.68210000      -1.29800000
C        2.79380000       4.77740000      -2.38380000
O        3.48570000       5.83820000      -1.74530000
C        3.05970000       5.77800000      -0.41070000
O        2.92450000       4.40860000      -0.07930000
H       -0.84100000       1.98360000       0.14510000
H        1.57740000       2.39570000       0.81090000
H        2.09330000       1.08600000      -0.27560000
H        1.25700000       2.41910000      -2.23370000
H        0.58070000       3.63470000      -1.14800000
H        3.55590000       2.97610000      -1.40650000
H        3.35620000       4.48010000      -3.27070000
H        1.78290000       5.09290000      -2.68840000
H        3.81950000       6.23840000       0.22790000
H        2.09160000       6.29640000      -0.28230000
