17
Properties=species:S:1:pos:R:3 pbc="F F F"
C        0.31490000       1.35900000       0.34540000
C        0.06630000      -0.04100000      -0.16420000
C        0.97760000      -0.66380000      -1.18210000
N        0.93130000      -1.14990000       0.19310000
C        1.97250000      -1.05620000       1.12090000
O        1.89580000      -0.48950000       2.17940000
N        3.08670000      -1.80350000       0.69140000
C        4.30590000      -1.95430000       1.33830000
O        4.65520000      -1.41920000       2.35340000
H        1.37230000       1.62940000       0.28750000
H       -0.25870000       2.07220000      -0.25520000
H        0.00770000       1.45220000       1.38940000
H       -0.98280000      -0.32880000      -0.20810000
H        0.58890000      -1.34010000      -1.93920000
H        1.84760000      -0.08360000      -1.48340000
H        2.96570000      -2.33370000      -0.15880000
H        4.94840000      -2.65540000       0.76580000
