20
Properties=species:S:1:pos:R:3 pbc="F F F"
C       -0.18430000       1.51990000       0.08180000
C       -0.07600000       0.01670000      -0.10540000
C        0.83770000      -0.39770000      -1.24430000
O        0.92830000      -1.80600000      -1.29470000
C        1.50300000      -2.37500000      -0.12160000
C        3.03740000      -2.31970000      -0.14870000
C        0.96280000      -1.77280000       1.17260000
N        1.10910000      -2.40900000       2.25670000
O        0.41690000      -0.52650000       1.14010000
H        0.80320000       1.96310000       0.24240000
H       -0.63640000       1.98140000      -0.80120000
H       -0.80790000       1.74940000       0.94940000
H       -1.06870000      -0.41860000      -0.28420000
H        0.42020000      -0.07520000      -2.20260000
H        1.82590000       0.07380000      -1.12460000
H        1.19210000      -3.42210000      -0.13090000
H        3.40990000      -1.29220000      -0.09460000
H        3.43540000      -2.86940000       0.70650000
H        3.40010000      -2.77380000      -1.07470000
H        0.73800000      -1.86520000       3.03850000
