15
Properties=species:S:1:pos:R:3 pbc="F F F"
C       -0.02090000       1.50180000       0.03650000
C        0.00600000       0.01060000      -0.01160000
C        0.29280000      -0.99090000      -1.18060000
C       -0.63120000      -2.01250000      -0.53460000
C        0.84950000      -1.99720000      -0.18450000
C        0.56620000      -1.00300000       0.98010000
C       -0.91900000      -1.01850000       0.62890000
H        0.95000000       1.93160000      -0.23840000
H       -0.77410000       1.91370000      -0.64610000
H       -0.26340000       1.85090000       1.04660000
H        0.53810000      -0.84380000      -2.22440000
H       -1.22320000      -2.79250000      -0.99430000
H        1.59990000      -2.76320000      -0.32670000
H        1.04530000      -0.83600000       1.93620000
H       -1.77880000      -0.86530000       1.26840000
