16
Properties=species:S:1:pos:R:3 pbc="F F F"
C        0.04140000       1.46160000       0.00090000
N       -0.02910000       0.01660000      -0.00430000
C       -0.13930000      -0.80040000      -1.12230000
C       -0.09270000      -2.10900000      -0.71310000
C        0.05850000      -2.10600000       0.71070000
N        0.15230000      -3.14510000       1.68710000
C        0.09680000      -0.78470000       1.09120000
O        0.22870000      -0.25290000       2.32730000
H        1.06970000       1.82220000      -0.12240000
H       -0.56940000       1.85750000      -0.81410000
H       -0.34600000       1.84050000       0.94850000
H       -0.24480000      -0.36180000      -2.10110000
H       -0.16980000      -2.97520000      -1.35320000
H        0.95410000      -3.74660000       1.52160000
H       -0.66690000      -3.74580000       1.67840000
H        0.27260000      -1.02290000       2.91480000
