17
Properties=species:S:1:pos:R:3 pbc="F F F"
O       -0.33910000       0.26250000      -0.91800000
C       -0.22600000       1.36500000      -0.42620000
N       -0.76670000       1.78580000       0.77410000
C       -0.49730000       3.17080000       1.06150000
C        0.36340000       3.59130000      -0.11310000
C        0.50310000       2.55420000      -0.95070000
C        0.90170000       4.96170000      -0.19260000
C        2.36670000       5.18020000      -0.42210000
N        1.39780000       5.51890000      -1.46260000
H       -1.38260000       1.20000000       1.31080000
H       -1.41220000       3.78040000       1.11210000
H        0.03630000       3.31000000       2.01350000
H        1.04310000       2.51220000      -1.88660000
H        0.37860000       5.69200000       0.42120000
H        2.86040000       6.02860000       0.04400000
H        2.98140000       4.29210000      -0.53890000
H        1.38050000       4.79960000      -2.18160000
