17
Properties=species:S:1:pos:R:3 pbc="F F F"
C        0.48290000       1.45840000      -0.48910000
C       -0.00860000       0.19590000       0.18460000
C        0.38830000      -1.12970000      -0.38720000
N        0.98070000      -0.67800000       0.87290000
C       -1.35960000       0.34160000       0.85570000
O       -1.98320000       1.36610000       0.72810000
C       -2.02070000      -0.82470000       1.65520000
N       -1.17540000      -1.56140000       2.41760000
O       -3.22140000      -0.97990000       1.59580000
H        1.43800000       1.27830000      -0.99260000
H       -0.24190000       1.80700000      -1.22820000
H        0.61380000       2.26230000       0.24070000
H       -0.27350000      -1.98580000      -0.29700000
H        0.99360000      -1.10880000      -1.28880000
H        1.91470000      -0.30440000       0.72650000
H       -0.17270000      -1.45350000       2.30980000
H       -1.56630000      -2.32420000       2.94860000
