23
Properties=species:S:1:pos:R:3 pbc="F F F"
C       -0.21350000       1.59330000      -0.05610000
C        0.05900000       0.08920000      -0.01160000
C        0.84280000      -0.50630000      -1.21180000
C        2.18610000       0.21790000      -1.44810000
C        3.03020000      -0.32870000      -0.25820000
C        2.00480000      -1.25880000       0.42610000
O        1.26770000      -1.77590000      -0.69250000
C        0.91420000      -0.46490000       1.19410000
C        1.41030000       0.54090000       2.23370000
H        0.69820000       2.19590000      -0.02200000
H       -0.74920000       1.85970000      -0.97420000
H       -0.84000000       1.90310000       0.78630000
H       -0.91120000      -0.41790000       0.00490000
H        0.24120000      -0.66230000      -2.10870000
H        2.61030000      -0.08550000      -2.40810000
H        2.09850000       1.30610000      -1.45460000
H        3.88470000      -0.91040000      -0.61180000
H        3.41300000       0.45490000       0.39860000
H        2.43950000      -2.08590000       0.98960000
H        0.30720000      -1.20740000       1.72210000
H        1.98850000       1.35980000       1.79710000
H        0.57190000       0.98830000       2.77720000
H        2.04920000       0.04550000       2.97340000
