22
Properties=species:S:1:pos:R:3 pbc="F F F"
C       -0.08290000       1.56330000       0.43850000
C       -0.00340000       0.08870000       0.00450000
C        0.94000000      -0.69870000       0.92390000
C       -1.39910000      -0.50750000      -0.10910000
N       -2.23570000      -0.75940000       1.10520000
C       -1.82250000      -1.89400000       0.24640000
C       -2.89920000      -2.34680000      -0.73350000
C       -3.09530000      -1.12290000      -1.60580000
C       -2.26840000      -0.13070000      -1.27420000
H        0.91010000       2.02420000       0.43870000
H       -0.72430000       2.14720000      -0.22820000
H       -0.49500000       1.64910000       1.44990000
H        0.42600000       0.06000000      -1.00660000
H        1.07720000      -1.72700000       0.57810000
H        1.92430000      -0.22160000       0.95400000
H        0.57080000      -0.73310000       1.95600000
H       -1.62940000      -0.75570000       1.92530000
H       -1.13040000      -2.62020000       0.65780000
H       -2.57470000      -3.21780000      -1.31850000
H       -3.82210000      -2.63450000      -0.21530000
H       -3.85060000      -1.07710000      -2.38240000
H       -2.22450000       0.84110000      -1.75230000
