18
Properties=species:S:1:pos:R:3 pbc="F F F"
C       -0.03770000       1.54900000       0.11850000
C        1.50420000       1.47810000      -0.01700000
O        2.06850000       1.36600000       1.28470000
C        1.95120000       0.03710000       1.77010000
C        2.92570000      -0.85640000       0.97600000
N        1.82980000      -1.15200000      -0.00410000
C        1.34640000       0.06110000      -0.74010000
C       -0.03020000       0.02010000      -0.01950000
C        0.79870000      -0.75760000       1.04560000
H       -0.40790000       2.01090000       1.03660000
H       -0.51660000       2.01150000      -0.75020000
H        2.03130000       2.27480000      -0.54430000
H        1.98910000       0.07600000       2.86140000
H        3.81580000      -0.35850000       0.58190000
H        3.20820000      -1.78620000       1.48010000
H        1.49440000       0.06310000      -1.82150000
H       -0.89150000      -0.52720000      -0.40360000
H        0.33590000      -1.56030000       1.62500000
