15
Properties=species:S:1:pos:R:3 pbc="F F F"
N        0.09240000       1.34610000      -0.14720000
C       -0.04620000      -0.00720000      -0.05000000
C       -1.22370000      -0.69020000       0.00360000
C       -1.11620000      -2.11510000       0.04080000
N       -2.25430000      -2.86150000       0.13080000
N        0.02160000      -2.76820000       0.02750000
C        1.18950000      -2.08860000      -0.01010000
N        2.34590000      -2.60440000      -0.01550000
O        1.12970000      -0.63230000      -0.05350000
H        0.99890000       1.71410000       0.09540000
H       -0.69660000       1.91330000       0.11580000
H       -2.17400000      -0.17570000       0.02070000
H       -3.13290000      -2.45580000      -0.14180000
H       -2.13910000      -3.85190000      -0.01670000
H        3.05820000      -1.87880000      -0.05460000
