14
Properties=species:S:1:pos:R:3 pbc="F F F"
O       -0.13600000       0.09090000      -0.41860000
C        0.02770000       1.14740000       0.12280000
C        1.32480000       1.95640000       0.00370000
O        2.45690000       1.21400000      -0.47870000
C        2.60800000       2.11400000      -1.59190000
C        1.41580000       2.04740000      -2.48130000
C        1.37040000       2.89980000      -1.22670000
C        1.62140000       2.63940000       1.26630000
N        1.81260000       3.18170000       2.26840000
H       -0.76590000       1.65510000       0.71120000
H        3.61320000       2.41260000      -1.85890000
H        1.47950000       2.63250000      -3.39350000
H        0.85040000       1.12400000      -2.55050000
H        1.16980000       3.96050000      -1.20020000
