14
Properties=species:S:1:pos:R:3 pbc="F F F"
O        0.02570000       1.35070000      -0.40660000
C        0.01590000       0.13740000       0.32600000
C       -1.34520000      -0.51610000       0.26200000
N       -1.69050000      -1.05720000      -1.05940000
C       -1.52830000      -1.99160000       0.08270000
C       -0.43360000      -2.92290000       0.04010000
C        0.46080000      -3.72620000       0.03410000
H       -0.21390000       1.11500000      -1.31070000
H        0.77520000      -0.56630000      -0.04050000
H        0.26510000       0.39550000       1.36030000
H       -2.13140000      -0.00280000       0.81270000
H       -2.68090000      -0.93430000      -1.25310000
H       -2.44100000      -2.40260000       0.50960000
H        1.25700000      -4.42890000       0.01930000
