16
Properties=species:S:1:pos:R:3 pbc="F F F"
N       -0.03370000       1.23510000      -0.19870000
C       -0.28830000      -0.12630000      -0.30110000
O        0.12500000      -0.81090000      -1.22040000
N       -1.02540000      -0.64620000       0.73930000
C       -1.19250000      -2.08850000       0.84400000
C       -2.29020000      -2.61650000      -0.09950000
C       -2.36050000      -4.12430000      -0.09150000
O       -3.34560000      -4.76910000       0.16340000
H        0.30630000       1.62840000      -1.06330000
H       -0.72030000       1.80810000       0.26870000
H       -1.09520000      -0.10930000       1.58780000
H       -0.24360000      -2.58420000       0.60860000
H       -1.44710000      -2.31890000       1.88230000
H       -3.27010000      -2.20780000       0.15960000
H       -2.02210000      -2.29790000      -1.11480000
H       -1.39940000      -4.62920000      -0.34840000
