16
Properties=species:S:1:pos:R:3 pbc="F F F"
C        0.02350000       1.56880000       0.13010000
C       -0.01520000       0.05140000      -0.00080000
O       -1.34060000      -0.43360000      -0.19040000
C        0.72970000      -0.45650000      -1.27970000
O        0.04460000      -0.01490000      -2.43410000
C        2.11000000       0.03060000      -1.32020000
C        3.24500000       0.41920000      -1.32410000
C        0.75630000      -1.94800000      -1.24140000
N        0.76800000      -3.10250000      -1.21620000
H        1.04320000       1.92020000       0.30080000
H       -0.36400000       2.03960000      -0.77670000
H       -0.58790000       1.88260000       0.98330000
H        0.44880000      -0.42470000       0.87340000
H       -1.92810000       0.02060000       0.42080000
H       -0.89200000      -0.17880000      -2.24440000
H        4.25200000       0.75860000      -1.34160000
