21
Properties=species:S:1:pos:R:3 pbc="F F F"
C        0.17060000       1.70880000       0.13250000
C        1.55520000       2.02390000      -0.49600000
C        2.26760000       0.64410000      -0.61720000
C        1.08770000      -0.28850000      -0.93640000
C       -0.01710000       0.16860000       0.03040000
O        0.03810000      -0.54370000       1.26380000
C        1.01190000      -0.22430000       2.23330000
C        2.45780000      -0.07790000       1.82720000
C        2.99090000       0.28160000       0.65880000
H        0.10030000       2.03780000       1.17200000
H       -0.63120000       2.22090000      -0.40580000
H        1.42650000       2.45180000      -1.49620000
H        2.13640000       2.73910000       0.09060000
H        2.99480000       0.66190000      -1.43390000
H        0.75990000      -0.12110000      -1.97020000
H        1.31210000      -1.35010000      -0.81340000
H       -1.00960000      -0.08320000      -0.35290000
H        0.72820000       0.69180000       2.78500000
H        0.93660000      -1.03800000       2.96430000
H        3.13690000      -0.23930000       2.66390000
H        4.07400000       0.38000000       0.62170000
