18
Properties=species:S:1:pos:R:3 pbc="F F F"
C        0.20420000       1.53260000      -0.23360000
N        0.03930000       0.10730000       0.01950000
C        1.22920000      -0.72830000      -0.08970000
C        0.61550000      -0.46260000       1.24460000
C        1.27660000       0.36290000       2.31040000
C        2.32420000      -0.26890000       3.19730000
C        2.70760000       0.84140000       2.25490000
H        1.17300000       1.94470000       0.08490000
H        0.09200000       1.71120000      -1.30790000
H       -0.58860000       2.08430000       0.28260000
H        1.09590000      -1.69110000      -0.57740000
H        2.17300000      -0.23600000      -0.31820000
H       -0.01730000      -1.24890000       1.65740000
H        0.58840000       1.03070000       2.82460000
H        2.29330000      -0.06380000       4.26150000
H        2.64940000      -1.27260000       2.94460000
H        3.31130000       0.58130000       1.39340000
H        2.92850000       1.81910000       2.66950000
