21
Properties=species:S:1:pos:R:3 pbc="F F F"
C        0.63010000       1.49850000       0.04030000
C        1.28970000       0.14540000      -0.15210000
C       -0.20190000       0.25870000       0.06710000
C       -0.83350000      -0.25740000       1.36010000
C       -1.74860000      -1.45080000       1.03380000
C       -2.87080000      -0.95400000       0.07720000
C       -1.80740000      -1.09340000      -1.04230000
C       -1.16350000      -2.22170000      -0.18900000
O       -0.99970000       0.07990000      -1.08720000
H        0.79130000       2.02950000       0.97280000
H        0.52840000       2.13220000      -0.83340000
H        1.61510000      -0.10590000      -1.15520000
H        1.91070000      -0.24850000       0.64630000
H       -0.04010000      -0.54870000       2.05690000
H       -1.42240000       0.52860000       1.85060000
H       -2.03110000      -2.00970000       1.92850000
H       -3.67640000      -1.68550000      -0.02980000
H       -3.28690000       0.04400000       0.23850000
H       -2.11880000      -1.29240000      -2.06930000
H       -0.08470000      -2.37320000      -0.25650000
H       -1.68010000      -3.17050000      -0.35380000
