16
Properties=species:S:1:pos:R:3 pbc="F F F"
O       -0.00090000       0.03750000      -0.07320000
C       -0.01670000       1.22180000      -0.09160000
C       -1.07280000       2.36940000       0.06550000
N       -0.02490000       2.93390000       0.96250000
C        1.01290000       2.39670000       0.03760000
C        0.94070000       3.08460000      -1.37510000
C       -0.07320000       4.24790000      -1.35630000
C       -1.05640000       3.05850000      -1.34840000
O       -0.05820000       2.31200000      -2.13360000
H       -2.05650000       2.20750000       0.50710000
H       -0.03670000       3.94430000       1.07290000
H        2.01200000       2.26070000       0.45270000
H        1.89530000       3.16640000      -1.89610000
H       -0.07200000       4.98520000      -0.55100000
H       -0.09270000       4.75270000      -2.32210000
H       -2.02640000       3.11510000      -1.84360000
