16
Properties=species:S:1:pos:R:3 pbc="F F F"
C       -0.07800000       1.55190000       0.02990000
C        0.12590000       0.06500000       0.00410000
O       -0.72280000      -0.73630000       0.85600000
C        0.69620000      -0.78640000       1.06070000
C        1.35750000      -1.96410000       0.36080000
N        1.07140000      -1.81680000      -1.07330000
C        0.45140000      -0.71050000      -1.25400000
N        0.14650000      -0.19640000      -2.49230000
H        0.77290000       2.06980000      -0.42280000
H       -0.97940000       1.83720000      -0.52520000
H       -0.20020000       1.89920000       1.05840000
H        1.04750000      -0.39740000       2.01300000
H        2.44200000      -1.96280000       0.53290000
H        0.97250000      -2.92370000       0.72540000
H        0.26660000      -0.85540000      -3.24940000
H       -0.70220000       0.34520000      -2.55760000
