19
Properties=species:S:1:pos:R:3 pbc="F F F"
C        0.03040000       1.52120000       0.29780000
C       -0.02540000       0.05120000      -0.13950000
C       -1.42180000      -0.52780000      -0.10630000
C       -2.00650000      -1.09650000       1.15080000
C       -1.71770000      -2.00920000      -0.03250000
C       -2.89610000      -2.25960000      -0.91540000
O       -3.39690000      -3.29970000      -1.22920000
O       -3.38120000      -1.05540000      -1.35790000
C       -2.46520000       0.01400000      -1.08000000
H        1.05790000       1.89580000       0.27510000
H       -0.56720000       2.15960000      -0.36170000
H       -0.35200000       1.64400000       1.31620000
H        0.38220000      -0.04720000      -1.15420000
H        0.62170000      -0.54890000       0.51100000
H       -1.34380000      -1.20820000       2.00220000
H       -3.04210000      -0.89350000       1.40560000
H       -0.96620000      -2.78290000       0.04740000
H       -3.04080000       0.85430000      -0.68000000
H       -1.99870000       0.32570000      -2.02300000
