19
Properties=species:S:1:pos:R:3 pbc="F F F"
C        0.00610000       1.65060000       0.06790000
C        1.50770000       1.31170000       0.01780000
C        1.17630000       0.09810000       0.95300000
C       -0.08380000       0.07890000       0.03630000
C       -1.38410000      -0.64310000      -0.10500000
C       -1.65840000      -0.78670000      -1.41020000
C       -0.54980000      -0.24680000      -2.31480000
C        0.60750000      -0.22020000      -1.30290000
O        1.65620000       0.75780000      -1.31140000
H       -0.32680000       2.06040000       1.02350000
H       -0.40540000       2.21800000      -0.76870000
H        2.30840000       2.02240000       0.21520000
H        1.84260000      -0.76780000       0.92510000
H        0.98960000       0.41490000       1.98080000
H       -2.04280000      -0.91810000       0.71000000
H       -2.57920000      -1.20080000      -1.80740000
H       -0.35750000      -0.87890000      -3.18660000
H       -0.79810000       0.75530000      -2.68790000
H        1.05690000      -1.22260000      -1.28170000
