23
Properties=species:S:1:pos:R:3 pbc="F F F"
C       -0.13880000       1.53130000       0.08490000
C       -0.02330000       0.00630000       0.00740000
C        0.74170000      -0.59620000       1.18090000
O        0.05350000      -0.28330000       2.39510000
C        0.43740000      -1.22550000       3.39950000
C       -0.64020000      -1.25870000       4.47190000
C        0.68410000      -2.52150000       2.63590000
C       -0.34950000      -2.88970000       1.60150000
C        0.87980000      -2.11340000       1.19850000
H        0.85050000       2.00290000       0.09050000
H       -0.69250000       1.92910000      -0.77100000
H       -0.65660000       1.83170000       0.99930000
H       -1.02080000      -0.44640000      -0.02980000
H        0.49130000      -0.28580000      -0.91680000
H        1.75610000      -0.15680000       1.20860000
H        1.39230000      -0.90930000       3.85580000
H       -1.58840000      -1.61330000       4.05810000
H       -0.34460000      -1.92670000       5.28690000
H       -0.79570000      -0.25870000       4.88670000
H        1.28410000      -3.29420000       3.10250000
H       -0.40090000      -3.92960000       1.29940000
H       -1.30510000      -2.37590000       1.61770000
H        1.62880000      -2.57490000       0.56550000
