19
Properties=species:S:1:pos:R:3 pbc="F F F"
C        0.12750000       1.25550000      -0.62070000
N       -0.03320000      -0.04730000       0.02690000
C        0.58440000      -0.07930000       1.35110000
C       -1.40560000      -0.45380000       0.02420000
C       -1.84980000      -1.18150000      -1.21030000
O       -0.94620000      -1.39710000      -2.22980000
C       -1.72620000      -1.95530000       0.11210000
C       -0.67630000      -2.91700000       0.25780000
N        0.16580000      -3.70260000       0.37470000
H        1.19220000       1.49520000      -0.69300000
H       -0.28970000       1.21880000      -1.63000000
H       -0.36990000       2.06990000      -0.06470000
H        0.12170000       0.64030000       2.04900000
H        0.50690000      -1.08200000       1.77490000
H        1.64540000       0.16990000       1.25900000
H       -2.12600000       0.19470000       0.53390000
H       -2.85500000      -1.03440000      -1.58890000
H       -0.06520000      -1.26220000      -1.84690000
H       -2.64830000      -2.21600000       0.62090000
