19
Properties=species:S:1:pos:R:3 pbc="F F F"
O        0.42370000       0.97410000       0.84660000
C        0.02940000      -0.18890000       0.17400000
C       -1.47790000      -0.36180000      -0.02690000
C       -2.22670000       0.87020000      -0.60660000
C       -2.59470000       0.05080000      -1.87580000
C       -1.67300000      -1.11170000      -1.40600000
C       -0.28660000      -1.16780000      -2.08190000
C        0.57340000      -0.22360000      -1.25710000
O        1.48580000       0.47720000      -1.62240000
H        1.15370000       1.33970000       0.32270000
H        0.42270000      -1.08950000       0.68340000
H       -1.96840000      -0.82160000       0.83130000
H       -3.06800000       1.23010000      -0.01210000
H       -1.56140000       1.71750000      -0.78910000
H       -3.64790000      -0.23810000      -1.91060000
H       -2.33600000       0.50150000      -2.83840000
H       -2.14780000      -2.09300000      -1.37020000
H        0.14920000      -2.17270000      -2.01150000
H       -0.28340000      -0.88540000      -3.13760000
