18
Properties=species:S:1:pos:R:3 pbc="F F F"
C        0.31390000       1.05650000       0.47890000
N       -0.12750000       0.03880000      -0.47800000
C       -1.44290000      -0.55720000      -0.22060000
C       -2.14700000      -0.87360000      -1.54110000
C       -1.21420000      -1.88370000       0.57310000
O       -0.18260000      -2.62620000      -0.02020000
C       -0.93430000      -1.61580000       2.00520000
N       -0.72150000      -1.40210000       3.12130000
H        1.28170000       1.45140000       0.15830000
H       -0.39220000       1.89670000       0.57490000
H        0.44400000       0.61170000       1.46770000
H       -0.10740000       0.42010000      -1.41550000
H       -2.07650000       0.11070000       0.38180000
H       -1.55300000      -1.58020000      -2.12830000
H       -3.12920000      -1.31950000      -1.36270000
H       -2.29390000       0.03840000      -2.12820000
H       -2.12900000      -2.48590000       0.53600000
H        0.44910000      -1.94120000      -0.31050000
