23
Properties=species:S:1:pos:R:3 pbc="F F F"
C        0.08380000       1.52690000       0.04610000
C        0.04460000       0.00020000       0.16990000
C       -1.36240000      -0.57280000       0.02620000
C       -2.07400000      -0.51810000      -1.37660000
C       -2.26220000      -2.04070000      -1.29640000
C       -0.93730000      -2.74140000      -1.18910000
C       -1.55310000      -2.09940000       0.04160000
O       -3.41930000      -2.70070000      -1.65240000
C       -3.52820000      -2.92690000      -3.04710000
H        1.10320000       1.91060000       0.15320000
H       -0.29460000       1.85640000      -0.92780000
H       -0.53350000       2.00240000       0.81670000
H        0.70640000      -0.44510000      -0.58330000
H        0.45050000      -0.30020000       1.14500000
H       -2.01350000      -0.11170000       0.77700000
H       -3.02240000       0.02250000      -1.34290000
H       -1.47930000      -0.14460000      -2.21750000
H       -1.01090000      -3.82440000      -1.19730000
H       -0.03500000      -2.34600000      -1.64950000
H       -1.79340000      -2.69340000       0.91540000
H       -4.46190000      -3.46950000      -3.21170000
H       -3.56140000      -1.98390000      -3.61130000
H       -2.68840000      -3.52830000      -3.42280000
