18
Properties=species:S:1:pos:R:3 pbc="F F F"
C       -0.02830000       1.54810000      -0.13690000
C       -0.00130000       0.03060000      -0.06080000
C        1.21550000      -0.64420000      -0.81500000
C        1.87130000      -0.65630000       0.54300000
C        2.86730000      -0.08210000       1.22330000
C        2.33100000       0.34080000       2.55910000
O        2.92110000       0.79230000       3.51380000
N        0.93550000       0.18180000       2.47020000
C        0.58350000      -0.56740000       1.30080000
H        0.94170000       1.97650000       0.13350000
H       -0.27750000       1.88010000      -1.14960000
H       -0.77420000       1.95920000       0.54990000
H       -0.97370000      -0.39400000      -0.32300000
H        0.96050000      -1.63450000      -1.20210000
H        1.70800000      -0.06380000      -1.59760000
H        3.85910000       0.19310000       0.89370000
H        0.40770000       0.14580000       3.32870000
H        0.09300000      -1.51910000       1.53230000
