18
Properties=species:S:1:pos:R:3 pbc="F F F"
C        0.01070000       1.56840000       0.00850000
O        1.42250000       1.82250000      -0.07030000
C        2.14520000       0.75700000       0.56720000
C        1.11820000      -0.31130000       0.79240000
C        0.87140000      -1.25060000       1.70530000
C       -0.57960000      -1.61850000       1.66410000
N       -1.42680000      -0.45130000       2.05740000
C       -1.21310000      -0.74860000       0.62600000
C       -0.09960000       0.04000000      -0.04350000
H       -0.41190000       1.94670000       0.94930000
H       -0.45310000       2.08890000      -0.83330000
H        2.95790000       0.45000000      -0.10490000
H        2.59700000       1.10370000       1.50690000
H        1.55290000      -1.60310000       2.47030000
H       -0.93620000      -2.61670000       1.89510000
H       -2.35290000      -0.79180000       2.31140000
H       -2.05450000      -1.09650000       0.03710000
H        0.02360000      -0.29240000      -1.08340000
