12
Properties=species:S:1:pos:R:3 pbc="F F F"
O        0.00650000      -0.00840000      -0.07180000
C       -0.03890000       1.18930000      -0.01230000
C       -1.23610000       2.06860000       0.12530000
C       -0.89080000       3.35940000       0.04800000
C        0.59890000       3.51250000      -0.06920000
O        1.30430000       2.97560000       1.06260000
C        1.16760000       2.15350000      -0.11080000
C        2.36470000       1.77170000      -0.80630000
N        3.31260000       1.44330000      -1.37930000
H       -2.22640000       1.65990000       0.27480000
H       -1.56070000       4.20810000       0.10390000
H        1.06540000       4.36020000      -0.55910000
