13
Properties=species:S:1:pos:R:3 pbc="F F F"
N        0.10650000      -1.14340000       0.00800000
C        0.04640000       0.01200000      -0.00940000
C       -0.07450000       1.43840000      -0.01740000
C        0.28140000       2.27210000      -1.19320000
N        1.13180000       2.38600000      -0.00550000
C        0.36500000       3.25620000       0.96190000
C       -0.82160000       2.26150000       1.03650000
H        0.77210000       1.77380000      -2.02270000
H       -0.37360000       3.09740000      -1.46730000
H        0.92120000       3.34940000       1.89500000
H        0.15660000       4.25360000       0.56370000
H       -1.81620000       2.61140000       0.74990000
H       -0.88450000       1.75330000       1.99900000
