16
Properties=species:S:1:pos:R:3 pbc="F F F"
C       -0.02110000      -1.21370000      -0.04680000
C       -0.01830000      -0.01180000      -0.01990000
C       -0.05210000       1.43370000      -0.02640000
C       -0.05000000       2.09490000       1.38800000
O        1.38960000       1.81850000       1.46670000
C        1.34840000       2.12150000       0.03090000
C        1.02530000       3.63380000       0.06430000
N       -0.36900000       3.97670000      -0.30330000
C       -0.03650000       3.61360000       1.09480000
H       -0.01660000      -2.27520000      -0.06280000
H       -0.76340000       1.82760000      -0.75170000
H       -0.62430000       1.70930000       2.22800000
H        2.21250000       1.76310000      -0.52500000
H        1.81180000       4.37600000       0.01120000
H       -0.44940000       4.99050000      -0.36620000
H       -0.12760000       4.33920000       1.89330000
