17
Properties=species:S:1:pos:R:3 pbc="F F F"
O       -0.03320000       0.55540000       1.37840000
C       -0.07960000       1.33750000       0.44830000
C       -1.40640000       1.94970000       0.03330000
C       -1.62840000       2.18790000      -1.46380000
C       -0.85540000       3.38170000      -2.03370000
C        0.63830000       3.20340000      -2.24450000
O        1.18640000       3.72540000      -3.19630000
C        1.49250000       2.42130000      -1.30610000
C        1.20520000       1.67440000      -0.22830000
H       -2.17640000       1.29300000       0.44650000
H       -1.49720000       2.90700000       0.56800000
H       -1.39780000       1.27880000      -2.03220000
H       -2.69570000       2.37770000      -1.61680000
H       -1.25650000       3.68380000      -3.00470000
H       -0.98230000       4.24590000      -1.36460000
H        2.53480000       2.48260000      -1.61100000
H        2.03250000       1.17720000       0.27300000
