15
Properties=species:S:1:pos:R:3 pbc="F F F"
C       -0.05930000       1.50820000       0.06810000
C       -0.00800000       0.02280000      -0.04900000
C       -0.03620000      -0.80170000      -1.13650000
C        0.04240000      -2.16310000      -0.66900000
C        0.04960000      -3.37420000      -1.38820000
N        0.05940000      -4.40130000      -1.92970000
C        0.11610000      -2.09440000       0.71350000
O        0.20520000      -3.04240000       1.66030000
N        0.08600000      -0.79120000       1.08180000
H        0.83700000       1.91630000       0.55180000
H       -0.12990000       1.95220000      -0.92700000
H       -0.92770000       1.84790000       0.64630000
H       -0.10510000      -0.49400000      -2.16750000
H        0.21470000      -3.90600000       1.22840000
H        0.12680000      -0.47760000       2.03710000
