21
Properties=species:S:1:pos:R:3 pbc="F F F"
C       -0.09790000       1.48650000      -0.11750000
C        1.27000000       0.85510000      -0.02300000
C        0.02810000      -0.00340000      -0.00240000
C       -0.38840000      -0.96050000       1.15140000
C       -0.32740000      -2.14200000       0.11310000
C       -1.47290000      -3.08190000      -0.30460000
C       -1.56280000      -2.85610000      -1.85200000
C       -1.06860000      -1.41890000      -2.02510000
C       -0.34820000      -1.08290000      -0.95940000
H       -0.47040000       2.02810000       0.74630000
H       -0.41020000       1.89820000      -1.07160000
H        1.88900000       0.83290000      -0.91330000
H        1.82050000       0.96420000       0.90610000
H        0.28340000      -1.01900000       2.01220000
H       -1.40860000      -0.76580000       1.49630000
H        0.63380000      -2.66460000       0.19180000
H       -1.31450000      -4.13050000      -0.03560000
H       -2.41280000      -2.75810000       0.15750000
H       -0.93770000      -3.57890000      -2.39660000
H       -2.58270000      -2.98750000      -2.23000000
H       -1.36050000      -0.78780000      -2.85640000
