18
Properties=species:S:1:pos:R:3 pbc="F F F"
O        0.02910000      -0.04240000       0.22210000
C        0.00800000       1.14920000       0.03620000
C       -1.32090000       1.92210000      -0.11480000
N       -1.29330000       3.19010000      -0.86930000
C        0.02270000       3.85500000      -0.87850000
C        1.13960000       2.87700000      -1.31160000
C        1.26200000       2.02990000      -0.02050000
C        1.12390000       3.11470000       1.04260000
C        0.43530000       4.14900000       0.55840000
H       -2.05550000       1.24520000      -0.55690000
H       -1.66280000       2.11350000       0.91220000
H       -1.56480000       3.00710000      -1.82920000
H       -0.05600000       4.74310000      -1.51130000
H        0.86820000       2.29680000      -2.20020000
H        2.08300000       3.39730000      -1.50520000
H        2.15390000       1.40640000       0.05690000
H        1.47690000       2.98820000       2.05900000
H        0.11190000       5.02530000       1.10590000
