18
Properties=species:S:1:pos:R:3 pbc="F F F"
C       -0.09100000       1.58310000       0.12890000
C       -0.00890000       0.05760000       0.02070000
O        0.65870000      -0.40680000       1.18920000
C       -1.37950000      -0.50940000      -0.01800000
N       -2.43010000      -0.98970000      -0.00290000
C        0.74450000      -0.42200000      -1.24670000
O        0.06120000       0.07890000      -2.37340000
C        2.21210000       0.00210000      -1.27990000
O        2.70840000      -0.50970000      -2.51480000
H        0.90400000       1.98610000       0.33040000
H       -0.47280000       2.00010000      -0.80360000
H       -0.74870000       1.86370000       0.95340000
H        0.57610000      -1.36690000       1.23030000
H        0.72420000      -1.52620000      -1.24200000
H        0.64440000      -0.08250000      -3.12630000
H        2.28900000       1.09690000      -1.25220000
H        2.74980000      -0.41210000      -0.41850000
H        3.56490000      -0.11150000      -2.69240000
