18
Properties=species:S:1:pos:R:3 pbc="F F F"
C        0.10700000       1.70400000       0.05310000
C        0.07730000       0.19120000       0.12450000
O        0.97900000      -0.45640000      -0.82210000
C        1.53080000      -1.26390000       0.21490000
C        2.23620000      -0.44850000       1.22830000
C        0.71750000      -0.56070000       1.30080000
C        0.07580000      -1.19120000       2.48350000
N       -1.24500000      -0.88010000       2.67130000
O        0.67350000      -1.95900000       3.21690000
H        1.09970000       2.09770000       0.28430000
H       -0.17110000       2.03860000      -0.95110000
H       -0.60990000       2.13290000       0.76270000
H       -0.93940000      -0.18190000      -0.06270000
H        1.67470000      -2.32110000       0.02760000
H        2.71610000      -1.00730000       2.02450000
H        2.70600000       0.48600000       0.93850000
H       -1.68180000      -0.11190000       2.19210000
H       -1.67440000      -1.21090000       3.52050000
