21
Properties=species:S:1:pos:R:3 pbc="F F F"
C       -0.17650000       1.54120000       0.06030000
C        0.06400000       0.03560000       0.00230000
C        0.86610000      -0.53480000      -1.20310000
C        2.20770000       0.23340000      -1.29130000
C        2.98510000       0.10880000       0.03820000
O        2.16950000       0.20700000       1.20630000
C        0.94350000      -0.54300000       1.13310000
C        1.17430000      -1.96160000       0.62740000
C        1.13120000      -1.95160000      -0.70640000
H        0.74720000       2.09640000       0.23460000
H       -0.63140000       1.90550000      -0.86770000
H       -0.86240000       1.78370000       0.87920000
H       -0.90110000      -0.48300000       0.03060000
H        0.32580000      -0.48800000      -2.15320000
H        2.83650000      -0.16030000      -2.09870000
H        2.00790000       1.28340000      -1.52780000
H        3.52700000      -0.84620000       0.04620000
H        3.72630000       0.90800000       0.13200000
H        0.50890000      -0.47010000       2.13270000
H        1.42310000      -2.80110000       1.26510000
H        1.32860000      -2.79150000      -1.36340000
