17
Properties=species:S:1:pos:R:3 pbc="F F F"
C       -0.01450000       1.50040000       0.10010000
O        1.30510000       2.01840000      -0.06910000
C        2.09580000       1.23790000      -0.97180000
C        1.51170000       1.34130000      -2.37370000
C        0.58160000       0.39720000      -2.54770000
C        0.56680000      -0.53090000      -1.36430000
C        0.02430000      -0.02830000       0.02740000
O        1.26870000      -0.43260000       0.66210000
C        1.89100000      -0.27720000      -0.62850000
H       -0.34630000       1.83620000       1.08710000
H       -0.70560000       1.90230000      -0.65670000
H        3.11750000       1.60320000      -0.85650000
H        1.73140000       2.16100000      -3.04720000
H       -0.07160000       0.29700000      -3.40680000
H        0.30960000      -1.57220000      -1.55970000
H       -0.85490000      -0.51130000       0.46070000
H        2.77050000      -0.90680000      -0.77860000
