25
Properties=species:S:1:pos:R:3 pbc="F F F"
C       -0.41650000       1.65500000      -0.43630000
O       -0.57700000       0.25820000      -0.53400000
C        0.50400000      -0.44720000      -1.11730000
C        0.65030000      -0.12540000      -2.60490000
C        1.85460000      -0.42300000      -0.33920000
C        1.93380000      -1.96660000      -0.49550000
C        2.46610000      -2.78930000       0.66930000
C        0.40510000      -1.98310000      -0.84320000
C       -0.53920000      -2.37420000       0.28990000
H        0.51730000       1.92780000       0.07720000
H       -0.42890000       2.15390000      -1.41610000
H       -1.25860000       2.03080000       0.15090000
H        0.94230000       0.91640000      -2.77170000
H        1.41760000      -0.75610000      -3.06450000
H       -0.29740000      -0.30670000      -3.12230000
H        2.67310000       0.17490000      -0.74980000
H        1.69440000      -0.13550000       0.70460000
H        2.50890000      -2.21540000      -1.39390000
H        1.92370000      -2.57880000       1.59620000
H        2.38530000      -3.86430000       0.47230000
H        3.52390000      -2.56550000       0.84780000
H        0.15490000      -2.56900000      -1.73430000
H       -0.34720000      -1.80680000       1.20450000
H       -1.57690000      -2.18150000       0.00530000
H       -0.44040000      -3.43980000       0.52230000
