20
Properties=species:S:1:pos:R:3 pbc="F F F"
C        0.24430000       1.35440000      -0.01060000
N        0.12220000      -0.08660000       0.03660000
C        0.19590000      -0.92290000      -1.05320000
C        0.06380000      -2.22350000      -0.61880000
C        0.07630000      -3.44560000      -1.48900000
O        0.88560000      -3.29160000      -2.65010000
C       -0.09250000      -2.16380000       0.79570000
C       -0.05690000      -0.84000000       1.17820000
C       -0.16480000      -0.22020000       2.53230000
H        1.12370000       1.70230000       0.54300000
H        0.34670000       1.66710000      -1.05100000
H       -0.64160000       1.84250000       0.40960000
H        0.33210000      -0.52710000      -2.04690000
H        0.38930000      -4.31900000      -0.89360000
H       -0.92570000      -3.67430000      -1.87330000
H        1.73870000      -2.96150000      -2.34770000
H       -0.21860000      -3.00320000       1.46460000
H        0.73070000       0.35270000       2.80560000
H       -1.02030000       0.46260000       2.61570000
H       -0.29580000      -1.00280000       3.28290000
