17
Properties=species:S:1:pos:R:3 pbc="F F F"
C       -0.06540000       1.43880000      -0.01500000
C        0.00870000      -0.06230000      -0.00580000
N       -0.51710000      -0.79910000      -1.11360000
C       -0.15230000      -2.01190000      -0.89980000
N       -1.22100000      -2.86470000      -0.34450000
C       -0.48910000      -2.38580000       0.95650000
C       -0.40370000      -0.85250000       1.28630000
C        1.05130000      -0.81580000       0.81650000
C        0.87660000      -2.21580000       0.26390000
H        0.63870000       1.85360000      -0.74360000
H       -1.07140000       1.76860000      -0.28830000
H        0.18360000       1.85050000       0.96750000
H       -0.95690000      -3.85450000      -0.39120000
H       -0.63810000      -3.05250000       1.80640000
H       -0.88050000      -0.34560000       2.11390000
H        1.92440000      -0.36080000       1.26270000
H        1.62990000      -2.99640000       0.21290000
