17
Properties=species:S:1:pos:R:3 pbc="F F F"
N       -0.00280000       1.46920000       0.26310000
C       -0.01380000       0.05050000       0.03570000
C        0.37530000      -0.86320000       1.24010000
C       -0.91640000      -1.70700000       1.05910000
C       -2.11390000      -1.17630000       1.85560000
O       -2.35950000      -0.13280000       0.86960000
C       -1.39490000      -0.70270000      -0.04010000
C       -1.94930000      -1.04930000      -1.33330000
N       -2.34050000      -1.32560000      -2.38640000
H       -0.18500000       1.97590000      -0.59790000
H       -0.75050000       1.70850000       0.91030000
H        0.58580000      -0.18400000      -0.84800000
H        1.30810000      -1.41120000       1.09900000
H        0.42780000      -0.33150000       2.19380000
H       -0.82180000      -2.77800000       0.89740000
H       -2.96710000      -1.86200000       1.91340000
H       -1.90600000      -0.76110000       2.84750000
