18
Properties=species:S:1:pos:R:3 pbc="F F F"
C       -0.03790000       1.51520000       0.01990000
C        0.04740000       0.01740000      -0.00740000
C       -0.82230000      -0.88560000       0.80330000
C        0.68210000      -0.95950000       1.02840000
C        1.26680000      -1.73420000      -0.08870000
N        2.02280000      -2.75000000      -0.13230000
O        2.28260000      -3.07800000      -1.49360000
C        0.69200000      -0.79280000      -1.14690000
O       -0.18630000      -1.31610000      -2.11220000
H        0.91730000       1.97630000      -0.25400000
H       -0.79680000       1.87490000      -0.68450000
H       -0.31400000       1.87650000       1.01570000
H       -1.36900000      -0.40200000       1.60730000
H       -1.34320000      -1.71610000       0.33850000
H        1.13500000      -0.75370000       1.98970000
H        2.84550000      -3.85430000      -1.41060000
H        1.51310000      -0.22160000      -1.60890000
H        0.28820000      -2.03360000      -2.54850000
