16
Properties=species:S:1:pos:R:3 pbc="F F F"
C       -0.03160000       1.50260000      -0.02080000
C        0.00470000      -0.00150000      -0.01250000
N       -0.03200000      -0.60770000      -1.16970000
C       -0.00150000      -1.96990000      -1.22230000
N       -0.02560000      -2.65370000      -2.28620000
O        0.05810000      -2.69990000       0.02850000
C        0.10290000      -2.04630000       1.18950000
N        0.21460000      -2.88960000       2.24970000
C        0.07480000      -0.68190000       1.23660000
H        0.86560000       1.91020000       0.45890000
H       -0.09170000       1.86750000      -1.04590000
H       -0.89330000       1.86950000       0.54830000
H        0.00810000      -3.64880000      -2.07290000
H       -0.01730000      -3.85650000       2.08710000
H        0.01520000      -2.52580000       3.16630000
H        0.11000000      -0.15340000       2.17880000
