20
Properties=species:S:1:pos:R:3 pbc="F F F"
C       -0.54350000       1.16120000      -0.25250000
C        0.26860000      -0.11500000      -0.12940000
C        1.67240000      -0.14360000      -0.79980000
C        2.22830000      -0.55930000       0.57390000
N        0.88130000      -0.30320000       1.23700000
C        0.82680000      -1.72210000       1.71520000
C        2.12260000      -2.03770000       0.96100000
C        2.57480000      -3.24180000       0.26070000
O        3.18560000      -2.80660000       1.48410000
H        0.05300000       2.02750000       0.04990000
H       -0.87820000       1.31220000      -1.28520000
H       -1.42700000       1.12040000       0.39280000
H       -0.35010000      -0.97610000      -0.41660000
H        1.81920000      -0.84660000      -1.62300000
H        2.01250000       0.84570000      -1.11620000
H        3.10430000      -0.03800000       0.96980000
H        0.94350000      -1.78390000       2.80220000
H       -0.07540000      -2.27070000       1.42240000
H        1.99120000      -4.15920000       0.33050000
H        3.19760000      -3.15330000      -0.62890000
