15
Properties=species:S:1:pos:R:3 pbc="F F F"
O        0.07200000       1.36930000      -0.01340000
C       -0.04470000      -0.01640000       0.07130000
C       -0.44870000      -0.78910000       1.30500000
C       -1.56210000      -0.07840000       2.02820000
O       -2.77390000      -0.83230000       1.94440000
C       -2.40250000      -0.05100000       0.79490000
C       -3.28750000       0.95470000       0.31120000
C       -3.99450000       1.81410000      -0.14630000
C       -1.33100000      -0.78530000       0.01110000
H       -0.80110000       1.76770000       0.06620000
H        0.77390000      -0.48200000      -0.47260000
H        0.13430000      -1.61200000       1.70040000
H       -1.50220000       0.66430000       2.81450000
H       -4.63330000       2.56540000      -0.54140000
H       -1.51970000      -1.59740000      -0.68020000
