17
Properties=species:S:1:pos:R:3 pbc="F F F"
O        0.35330000       1.19260000       0.22610000
C        0.02980000      -0.14200000       0.00270000
C       -1.36960000      -0.66620000       0.03460000
C       -2.52620000       0.30440000       0.19100000
C       -2.60770000       1.37120000      -0.86350000
C       -1.91230000       1.35940000      -2.00970000
C       -0.98610000       0.26020000      -2.37510000
O       -0.58830000       0.12920000      -3.51810000
C       -0.58550000      -0.67730000      -1.29100000
H       -0.25100000       1.75730000      -0.26970000
H        0.80540000      -0.77110000       0.42620000
H       -1.52030000      -1.63160000       0.50790000
H       -3.47890000      -0.24330000       0.18680000
H       -2.47390000       0.78340000       1.17880000
H       -3.31290000       2.17790000      -0.67250000
H       -2.04870000       2.12510000      -2.76690000
H       -0.18950000      -1.61520000      -1.66320000
