20
Properties=species:S:1:pos:R:3 pbc="F F F"
C        0.14240000       1.57300000       0.04590000
C        0.11700000       0.04330000       0.04490000
C        0.57970000      -0.55060000      -1.30000000
C        0.57270000      -2.03950000      -1.31900000
N       -0.18990000      -2.83760000      -1.99800000
C        0.20610000      -4.12410000      -1.62820000
C       -0.43750000      -5.34120000      -2.20040000
C        1.20810000      -4.01510000      -0.72440000
O        1.45740000      -2.68410000      -0.51340000
H        1.15270000       1.95330000      -0.14180000
H       -0.51430000       1.98150000      -0.73010000
H       -0.19050000       1.97280000       1.00840000
H        0.75950000      -0.34290000       0.84410000
H       -0.89670000      -0.31470000       0.26030000
H       -0.07420000      -0.21490000      -2.10940000
H        1.59190000      -0.19020000      -1.52410000
H       -0.32150000      -5.36930000      -3.28910000
H        0.00140000      -6.25180000      -1.78430000
H       -1.51230000      -5.34960000      -1.99070000
H        1.81450000      -4.71250000      -0.17260000
