18
Properties=species:S:1:pos:R:3 pbc="F F F"
C       -0.03720000       1.58290000       0.03380000
C        0.01800000       0.04350000       0.08580000
C        0.74560000      -0.44330000       1.35430000
C       -1.33740000      -0.56320000      -0.04160000
C       -1.94900000      -1.38210000      -0.93760000
O       -1.42360000      -1.91090000      -2.06280000
N       -3.25180000      -1.63770000      -0.55690000
C       -3.38500000      -0.97140000       0.54700000
O       -2.28930000      -0.29810000       0.93140000
H        0.97100000       2.00560000       0.08990000
H       -0.50500000       1.93000000      -0.89190000
H       -0.61660000       1.97750000       0.87450000
H        0.57620000      -0.31110000      -0.78910000
H        0.20080000      -0.13840000       2.25350000
H        0.83300000      -1.53350000       1.36540000
H        1.75210000      -0.01640000       1.40760000
H       -2.11860000      -2.44300000      -2.46800000
H       -4.25650000      -0.89770000       1.17800000
