18
Properties=species:S:1:pos:R:3 pbc="F F F"
C        0.02780000       1.62480000       0.19350000
C       -0.03450000       0.09850000       0.08260000
C        0.76480000      -0.57840000       1.21860000
O        2.13710000      -0.21890000       1.21130000
C       -1.43550000      -0.43080000       0.05980000
C       -2.62000000       0.19070000       0.28550000
O       -3.62480000      -0.73220000       0.16230000
C       -2.98160000      -1.88110000      -0.13440000
N       -1.69710000      -1.77790000      -0.21060000
H        1.06920000       1.94710000       0.25600000
H       -0.44060000       2.11060000      -0.66760000
H       -0.48150000       1.97130000       1.10030000
H        0.44110000      -0.20900000      -0.86090000
H        0.37220000      -0.24580000       2.18630000
H        0.62960000      -1.66620000       1.15990000
H        2.54620000      -0.63800000       0.44730000
H       -2.92240000       1.19620000       0.51770000
H       -3.59420000      -2.75730000      -0.27880000
