18
Properties=species:S:1:pos:R:3 pbc="F F F"
C       -0.16930000       1.58640000       0.04290000
C       -0.03910000       0.09690000       0.03980000
C        0.01570000      -0.73030000      -1.04250000
N       -0.00810000      -0.45280000      -2.41170000
O        0.07320000      -2.03490000      -0.67410000
C        0.07300000      -2.05660000       0.72340000
N        0.06940000      -3.26930000       1.40990000
C        0.01110000      -0.77840000       1.18570000
N       -0.10360000      -0.37510000       2.52370000
H        0.77480000       2.09900000       0.27450000
H       -0.50310000       1.94350000      -0.93610000
H       -0.90150000       1.91280000       0.79020000
H        0.81930000       0.03680000      -2.73350000
H       -0.11860000      -1.30320000      -2.95020000
H       -0.79620000      -3.79210000       1.30730000
H        0.83670000      -3.87910000       1.14530000
H        0.08180000      -1.15260000       3.14740000
H        0.51140000       0.39640000       2.75360000
