21
Properties=species:S:1:pos:R:3 pbc="F F F"
C        0.12370000       1.51910000       0.02750000
C        0.07210000       0.06400000       0.01180000
C        0.02130000      -1.14050000      -0.00340000
C        0.01640000      -2.59980000      -0.03180000
O        0.78220000      -3.09640000      -1.11800000
C        0.28770000      -3.22910000       1.37830000
C       -1.24290000      -3.39080000       1.55910000
C       -1.40580000      -3.24940000       0.02150000
C       -2.60500000      -2.52590000      -0.56340000
H        0.95760000       1.88500000       0.63670000
H        0.24700000       1.92260000      -0.98350000
H       -0.79880000       1.94150000       0.44070000
H        1.54430000      -2.51880000      -1.23180000
H        0.78990000      -4.19040000       1.24360000
H        0.83590000      -2.62380000       2.10240000
H       -1.60370000      -4.31260000       2.01940000
H       -1.68090000      -2.53890000       2.08760000
H       -1.28960000      -4.23370000      -0.44520000
H       -2.71420000      -1.52800000      -0.12750000
H       -2.50400000      -2.41010000      -1.64780000
H       -3.52730000      -3.08470000      -0.37030000
