23
Properties=species:S:1:pos:R:3 pbc="F F F"
C        0.03340000       1.56930000       0.09680000
C        0.01140000       0.04130000       0.01260000
C        0.69870000      -0.49830000      -1.24200000
O        2.05030000      -0.06010000      -1.20390000
C        0.60400000      -2.03080000      -1.33720000
C        1.18660000      -2.61260000      -2.62520000
O        2.59330000      -2.31480000      -2.77670000
C        0.99870000      -4.12470000      -2.75550000
O        1.57880000      -4.61170000      -3.94480000
H        1.06100000       1.93910000       0.07410000
H       -0.50380000       2.01850000      -0.74630000
H       -0.44080000       1.91940000       1.01860000
H        0.51470000      -0.38730000       0.88870000
H       -1.02310000      -0.32310000       0.02920000
H        0.18950000      -0.07190000      -2.12650000
H        2.49540000      -0.45780000      -1.96340000
H        1.11340000      -2.47310000      -0.46880000
H       -0.45000000      -2.33000000      -1.27320000
H        0.72410000      -2.13380000      -3.49670000
H        3.03810000      -2.61920000      -1.97490000
H        1.42670000      -4.61780000      -1.86260000
H       -0.06810000      -4.37190000      -2.78340000
H        2.42460000      -4.15290000      -4.02850000
