17
Properties=species:S:1:pos:R:3 pbc="F F F"
C       -0.05430000       1.58120000      -0.02820000
C        0.07870000       0.07240000      -0.08020000
C        0.76100000      -0.67870000      -1.25060000
C        2.17820000      -0.05680000      -1.31620000
C        2.36500000      -0.62320000       0.09570000
C        3.57240000      -0.71030000       0.84990000
N        4.57520000      -0.77310000       1.42310000
C        1.29400000      -1.64080000      -0.12230000
N        1.05660000      -0.57330000       0.87130000
H        0.89770000       2.09360000      -0.18560000
H       -0.76160000       1.92820000      -0.78910000
H       -0.43560000       1.88500000       0.95160000
H       -0.88520000      -0.39700000       0.14220000
H        0.23100000      -0.95070000      -2.16050000
H        2.81750000      -0.59660000      -2.01790000
H        2.27760000       1.01920000      -1.47650000
H        1.25650000      -2.70190000       0.08400000
