17
Properties=species:S:1:pos:R:3 pbc="F F F"
O        0.03310000       1.43230000      -0.25830000
C        0.08010000       0.02980000      -0.10850000
C       -1.31340000      -0.52620000       0.20010000
O       -2.21610000      -0.09950000      -0.84110000
C       -2.79760000      -1.22130000      -1.49590000
C       -2.25180000      -2.41870000      -0.78220000
C       -1.41700000      -2.03080000       0.18750000
C       -0.70510000      -2.92180000       1.10710000
O        0.06420000      -2.54110000       1.96160000
H       -0.67050000       1.60740000      -0.89490000
H        0.47060000      -0.46510000      -1.01340000
H        0.75340000      -0.19470000       0.72290000
H       -1.65450000      -0.09690000       1.15230000
H       -3.89590000      -1.16840000      -1.43230000
H       -2.53860000      -1.22380000      -2.56660000
H       -2.51410000      -3.43990000      -1.03350000
H       -0.92490000      -4.00270000       0.96790000
