20
Properties=species:S:1:pos:R:3 pbc="F F F"
C        0.13460000       1.22940000       0.22930000
N       -0.01450000      -0.21850000       0.30430000
C       -1.10970000      -0.74620000      -0.00740000
O       -2.28930000      -0.20110000      -0.46670000
C       -2.86240000      -1.54540000      -0.68500000
C       -3.25170000      -1.75810000      -2.13150000
C       -1.56100000      -2.18030000      -0.11530000
C       -0.61460000      -3.04410000      -0.95410000
O        0.62970000      -3.15400000      -0.29740000
H        0.99870000       1.46880000      -0.39940000
H       -0.74660000       1.74410000      -0.17030000
H        0.34680000       1.62250000       1.22960000
H       -3.72650000      -1.67060000      -0.02590000
H       -2.40930000      -1.58490000      -2.80540000
H       -3.61200000      -2.78170000      -2.27800000
H       -4.05750000      -1.07180000      -2.40800000
H       -1.70500000      -2.65460000       0.85900000
H       -1.01010000      -4.05910000      -1.06920000
H       -0.50260000      -2.61590000      -1.96240000
H        0.90490000      -2.25200000      -0.07000000
