14
Properties=species:S:1:pos:R:3 pbc="F F F"
O        0.15390000       1.41030000      -0.25090000
C        0.06780000       0.03450000      -0.20320000
C        0.82350000      -0.73920000      -1.25910000
C        0.33230000      -1.97730000      -1.33440000
C       -0.83350000      -2.09830000      -0.40600000
C       -1.28420000      -0.75630000      -0.03210000
N       -0.66350000      -1.67360000       1.06070000
C        0.34580000      -0.65580000       1.15130000
O        0.94410000      -0.27430000       2.11450000
H        0.35220000       1.72250000       0.64190000
H        1.70840000      -0.33530000      -1.73210000
H        0.71590000      -2.80540000      -1.91350000
H       -1.51560000      -2.93840000      -0.45640000
H       -2.28290000      -0.35950000       0.09640000
