21
Properties=species:S:1:pos:R:3 pbc="F F F"
C       -0.01350000       1.35390000      -0.33590000
O       -0.05050000       0.09510000       0.29850000
C       -1.27600000      -0.56110000       0.16550000
C       -1.67530000      -1.12720000      -1.21210000
O       -0.70270000      -2.11210000      -1.58060000
C       -1.72800000      -2.49340000      -0.66430000
C       -1.30440000      -2.03140000       0.74910000
C        0.03550000      -2.57180000       1.23530000
C       -2.41780000      -2.21830000       1.77850000
H        0.97020000       1.78660000      -0.14060000
H       -0.15280000       1.26960000      -1.42370000
H       -0.78620000       2.03170000       0.06110000
H       -2.09540000       0.04740000       0.58300000
H       -2.24530000      -0.67010000      -2.01330000
H       -2.36320000      -3.32840000      -0.94080000
H        0.79360000      -2.47370000       0.45730000
H        0.37850000      -2.02050000       2.11620000
H       -0.05530000      -3.62900000       1.50960000
H       -2.53610000      -3.27650000       2.03690000
H       -2.18910000      -1.67250000       2.70000000
H       -3.38200000      -1.85670000       1.40350000
