23
Properties=species:S:1:pos:R:3 pbc="F F F"
C       -0.01760000       1.56210000       0.08060000
C       -0.04030000       0.03810000      -0.06770000
C        0.69490000      -0.48230000      -1.32790000
C        0.87610000      -2.00820000      -1.26620000
C        1.67220000      -2.58180000      -2.43740000
C        1.97890000      -4.07030000      -2.27200000
O        0.87830000      -2.35240000      -3.60330000
C       -0.10150000      -0.04640000      -2.54710000
O        0.17140000       0.89850000      -3.24330000
H        1.00890000       1.93060000       0.17990000
H       -0.45960000       2.05900000      -0.78760000
H       -0.57320000       1.87400000       0.97030000
H        0.42110000      -0.42560000       0.81280000
H       -1.07860000      -0.32120000      -0.08710000
H        1.67460000       0.00730000      -1.39270000
H        1.38080000      -2.26740000      -0.32860000
H       -0.10520000      -2.50160000      -1.24300000
H        2.62080000      -2.02660000      -2.51830000
H        1.05080000      -4.64230000      -2.17550000
H        2.52350000      -4.45220000      -3.14230000
H        2.59570000      -4.25030000      -1.38530000
H        1.43790000      -2.43030000      -4.38160000
H       -1.03320000      -0.63430000      -2.71070000
