22
Properties=species:S:1:pos:R:3 pbc="F F F"
C        0.25980000       1.61090000      -0.18410000
C       -0.00220000       0.11100000      -0.00250000
C        0.67070000      -0.74060000      -1.09850000
C        2.08810000      -0.97290000      -0.53800000
O        2.01440000      -0.74760000       0.87320000
C        0.65990000      -0.50250000       1.25150000
C        0.63520000       0.33050000       2.51540000
C        1.63910000       0.11380000       3.58290000
N        1.66720000       1.34530000       2.76660000
H        1.33040000       1.82820000      -0.25310000
H       -0.21080000       1.96710000      -1.10610000
H       -0.13860000       2.19520000       0.64910000
H       -1.08250000      -0.06600000       0.02240000
H        0.14730000      -1.69470000      -1.21490000
H        0.68350000      -0.24780000      -2.07410000
H        2.44680000      -1.99170000      -0.72900000
H        2.82130000      -0.27460000      -0.95940000
H        0.15950000      -1.46340000       1.46790000
H       -0.36890000       0.63630000       2.80580000
H        1.36550000       0.25910000       4.62420000
H        2.40670000      -0.63240000       3.40280000
H        2.38790000       1.22390000       2.05710000
