18
Properties=species:S:1:pos:R:3 pbc="F F F"
C       -0.21590000       1.54200000      -0.03550000
C        0.08940000       0.03410000       0.01660000
C        0.78780000      -0.47260000      -1.21000000
C        2.01940000      -0.98990000      -1.29950000
C        2.39710000      -1.38590000      -2.71240000
C        1.12520000      -1.08940000      -3.49830000
O       -0.01210000      -1.84860000      -3.08420000
C        0.14610000      -0.50480000      -2.56760000
H        0.70610000       2.12380000      -0.13080000
H       -0.85810000       1.79330000      -0.88600000
H       -0.73120000       1.86510000       0.87420000
H        0.70500000      -0.18240000       0.89660000
H       -0.85290000      -0.51420000       0.15170000
H        2.67970000      -1.15850000      -0.45500000
H        3.24250000      -0.79780000      -3.09350000
H        2.68360000      -2.44190000      -2.78970000
H        1.16450000      -0.84770000      -4.55720000
H       -0.63400000       0.19090000      -2.86330000
