21
Properties=species:S:1:pos:R:3 pbc="F F F"
C       -0.14780000       1.53200000       0.03520000
C        0.03490000       0.01240000       0.04130000
C        0.68360000      -0.47190000      -1.28020000
C        0.79750000      -1.99850000      -1.46230000
C        1.86300000      -2.65110000      -0.61230000
C        1.88590000      -2.62920000       0.71940000
C        0.84030000      -1.94380000       1.57590000
C        0.80580000      -0.44050000       1.28520000
O        1.36210000       0.34610000       2.01630000
H        0.82030000       2.03730000      -0.01610000
H       -0.74910000       1.84230000      -0.82500000
H       -0.64320000       1.87460000       0.94700000
H       -0.95210000      -0.47170000       0.10430000
H        0.07550000      -0.06780000      -2.09860000
H        1.67790000      -0.01970000      -1.37830000
H       -0.18220000      -2.45480000      -1.25340000
H        1.00440000      -2.20530000      -2.51670000
H        2.66550000      -3.16240000      -1.13790000
H        2.70620000      -3.10420000       1.24910000
H       -0.14980000      -2.37820000       1.38280000
H        1.06960000      -2.06780000       2.63540000
