15
Properties=species:S:1:pos:R:3 pbc="F F F"
N       -0.08900000       1.34750000      -0.16960000
C       -0.04270000      -0.02880000      -0.07640000
O        0.85130000      -0.70630000      -0.54230000
N       -1.12470000      -0.57040000       0.63670000
C       -2.53910000      -0.39860000       0.16940000
C       -2.46700000      -1.57790000      -0.86520000
O       -3.62650000      -2.26550000      -0.32110000
C       -2.97070000      -1.72610000       0.85890000
C       -1.52540000      -1.97060000       0.32720000
H        0.77910000       1.76980000      -0.46080000
H       -0.59510000       1.84840000       0.54380000
H       -3.05540000       0.55830000       0.11200000
H       -2.30230000      -1.58230000      -1.94160000
H       -3.40230000      -1.90140000       1.84250000
H       -0.86640000      -2.82630000       0.44490000
