25
Properties=species:S:1:pos:R:3 pbc="F F F"
C       -0.03840000       1.67790000       0.09030000
C       -0.17570000       0.15190000       0.08000000
C        0.73670000      -0.51780000       1.11540000
C        0.73510000      -2.06520000       1.14670000
C       -0.68510000      -2.65510000       1.15060000
C        1.50580000      -2.63830000      -0.06940000
O        2.90990000      -2.45380000       0.01960000
C        1.46690000      -2.47870000       2.43700000
O        1.84660000      -3.85430000       2.34160000
H        0.98720000       1.98460000      -0.14240000
H       -0.70130000       2.14360000      -0.64580000
H       -0.29040000       2.09100000       1.07360000
H       -1.22090000      -0.11720000       0.27250000
H        0.05580000      -0.22190000      -0.92490000
H        1.77160000      -0.19430000       0.94430000
H        0.45860000      -0.14290000       2.11160000
H       -1.17570000      -2.53740000       0.17910000
H       -0.64650000      -3.72410000       1.38040000
H       -1.31590000      -2.16760000       1.90240000
H        1.26000000      -3.70190000      -0.18360000
H        1.18340000      -2.13050000      -0.98410000
H        3.20720000      -3.08760000       0.68340000
H        2.35710000      -1.84870000       2.57110000
H        0.80580000      -2.31590000       3.30080000
H        2.21430000      -4.12540000       3.18760000
