16
Properties=species:S:1:pos:R:3 pbc="F F F"
C       -0.49840000       1.53350000      -0.10470000
C        0.03790000       0.08730000       0.04540000
C        0.86780000      -0.02470000       1.25290000
C        1.55880000      -0.09700000       2.23240000
C       -1.07630000      -0.86600000       0.12020000
C       -1.99590000      -1.63950000       0.16250000
C        0.98610000      -0.21300000      -1.18130000
N        1.02650000      -1.50970000      -1.56550000
O        1.64330000       0.66990000      -1.68570000
H        0.34670000       2.20890000      -0.23530000
H       -1.14610000       1.59940000      -0.98210000
H       -1.06770000       1.81150000       0.78380000
H        2.16830000      -0.16430000       3.09960000
H       -2.81480000      -2.31430000       0.21400000
H        0.39360000      -2.18980000      -1.18040000
H        1.61970000      -1.75850000      -2.33960000
