16
Properties=species:S:1:pos:R:3 pbc="F F F"
C        0.02060000       1.49930000       0.14780000
C       -0.02530000      -0.01740000      -0.07580000
O        0.71980000      -0.71020000       0.92470000
C       -1.44030000      -0.54870000      -0.01240000
C       -2.16620000      -0.57910000       1.30310000
N       -1.92960000      -0.92760000      -1.12970000
O       -3.26190000      -1.34870000      -0.99880000
H        1.05590000       1.85830000       0.10650000
H       -0.54600000       2.02170000      -0.62860000
H       -0.39300000       1.76430000       1.12550000
H        0.36120000      -0.24560000      -1.07820000
H        1.58780000      -0.29850000       0.98130000
H       -2.92150000       0.21390000       1.34880000
H       -2.69870000      -1.52680000       1.41460000
H       -1.46360000      -0.45600000       2.12760000
H       -3.46990000      -1.63870000      -1.89320000
