17
Properties=species:S:1:pos:R:3 pbc="F F F"
C       -0.05070000       1.55740000       0.04900000
C        0.14860000       0.07960000       0.04780000
O       -0.74720000      -0.75120000       0.79630000
C        0.66200000      -0.88420000       1.02160000
C        1.28670000      -1.75610000      -0.10720000
C        0.28580000      -2.21320000      -1.15320000
C       -1.03730000      -2.74390000      -0.96410000
C       -2.10950000      -3.28710000      -0.92070000
C        0.74490000      -0.76580000      -1.12990000
H        0.85450000       2.07180000      -0.29000000
H       -0.86960000       1.83790000      -0.62320000
H       -0.29740000       1.90510000       1.05550000
H        1.02430000      -0.77550000       2.03700000
H        2.27840000      -2.18550000      -0.04720000
H        0.81380000      -2.74230000      -1.94690000
H       -3.07070000      -3.72970000      -0.83780000
H        1.25910000      -0.32410000      -1.97430000
