16
Properties=species:S:1:pos:R:3 pbc="F F F"
O        0.07740000       0.03530000       0.62220000
C        0.02750000       1.11300000       0.09930000
C       -1.30470000       1.82420000      -0.13370000
C       -1.28710000       3.00320000      -1.12970000
C       -0.00560000       3.82330000      -0.88890000
C        1.21080000       2.92510000      -1.04460000
O        1.17680000       1.76090000      -0.20130000
C       -1.35850000       2.53880000      -2.52000000
N       -1.40320000       2.17730000      -3.61680000
H       -2.03540000       1.06210000      -0.40820000
H       -1.60560000       2.20950000       0.84770000
H       -2.16970000       3.62830000      -0.95720000
H        0.06830000       4.65730000      -1.59240000
H       -0.04500000       4.23900000       0.12370000
H        1.30740000       2.59010000      -2.08430000
H        2.12810000       3.45070000      -0.77080000
