17
Properties=species:S:1:pos:R:3 pbc="F F F"
C       -0.06880000       1.61950000       0.25330000
C       -0.17090000       0.10260000       0.32590000
C       -1.33770000      -0.58870000      -0.27400000
N       -0.00440000      -0.69920000      -0.89180000
C        1.32510000       2.08490000      -0.00030000
N        1.84390000       2.48280000      -1.12010000
C        3.17560000       2.74300000      -0.81590000
C        3.38890000       2.48250000       0.49300000
O        2.20620000       2.05750000       1.03360000
H       -0.68810000       1.99530000      -0.56620000
H       -0.44090000       2.05880000       1.18610000
H        0.30330000      -0.33700000       1.20100000
H       -1.71730000      -1.50710000       0.16470000
H       -2.09260000       0.02470000      -0.76040000
H        0.06480000      -0.08460000      -1.70060000
H        3.87070000       3.09850000      -1.55960000
H        4.23150000       2.53880000       1.15990000
