15
Properties=species:S:1:pos:R:3 pbc="F F F"
C       -0.07640000       1.50920000       0.01140000
C       -0.00050000      -0.00460000       0.00330000
O       -1.35000000      -0.50700000       0.01160000
C       -1.48420000      -1.83370000       0.00660000
N       -0.46470000      -2.66480000      -0.00560000
O       -1.04160000      -3.93950000      -0.00680000
C       -2.37600000      -3.81240000       0.00470000
C       -2.74180000      -2.50930000       0.01360000
H        0.93350000       1.92970000       0.00530000
H       -0.60950000       1.87720000      -0.86950000
H       -0.59510000       1.86850000       0.90460000
H        0.51480000      -0.38500000      -0.88590000
H        0.52890000      -0.39380000       0.88040000
H       -2.93370000      -4.73650000       0.00500000
H       -3.72740000      -2.07770000       0.02360000
