17
Properties=species:S:1:pos:R:3 pbc="F F F"
C       -0.00620000       1.56810000      -0.11790000
C       -0.01470000       0.08210000      -0.07190000
C       -0.00650000      -1.03910000      -1.07120000
C        1.24370000      -1.59170000      -0.41600000
N        0.90480000      -0.79980000       0.83400000
C       -0.35860000      -1.51940000       1.28820000
C       -0.86380000      -0.96440000       2.54130000
N       -1.29250000      -0.53580000       3.52510000
C       -1.06750000      -0.98190000       0.05180000
H        0.97370000       1.94870000      -0.42470000
H       -0.75070000       1.92660000      -0.83620000
H       -0.24540000       1.99170000       0.86260000
H       -0.30280000      -1.01350000      -2.11280000
H        1.35220000      -2.67050000      -0.25760000
H        2.16360000      -1.19140000      -0.84850000
H       -0.23470000      -2.60240000       1.40240000
H       -2.12780000      -0.91770000      -0.15490000
