19
Properties=species:S:1:pos:R:3 pbc="F F F"
C        0.10980000       1.65010000      -0.24660000
O        0.42610000       0.29770000       0.05050000
C        0.70690000      -0.48980000      -1.06950000
C        1.36190000      -1.83420000      -0.70030000
C        0.83830000      -2.43370000       0.60170000
O        1.08380000      -2.66490000      -1.84150000
C       -0.22100000      -2.38120000      -2.31660000
C       -0.53060000      -0.95820000      -1.86120000
O       -1.54830000      -0.34390000      -2.04560000
H        0.93470000       2.13600000      -0.79060000
H       -0.80650000       1.72910000      -0.83880000
H       -0.02740000       2.15540000       0.71180000
H        1.36520000       0.04140000      -1.78090000
H        2.45060000      -1.74860000      -0.65720000
H       -0.25220000      -2.53050000       0.59530000
H        1.27350000      -3.42550000       0.74920000
H        1.10810000      -1.79380000       1.44510000
H       -0.23800000      -2.46790000      -3.40820000
H       -0.98040000      -3.06790000      -1.91190000
