18
Properties=species:S:1:pos:R:3 pbc="F F F"
C        0.11560000       1.59000000       0.00500000
C        0.01020000       0.06510000       0.03330000
C        0.74120000      -0.62550000      -1.15810000
N        1.95310000      -1.24080000      -0.62160000
C        1.89790000      -1.16910000       0.65450000
N        2.83450000      -1.60710000       1.53340000
N        0.74620000      -0.51470000       1.17340000
C        0.32630000      -0.48720000       2.46710000
O        0.90690000      -0.97870000       3.41940000
H        1.16290000       1.89950000      -0.06880000
H       -0.42240000       1.98620000      -0.86210000
H       -0.31400000       2.04110000       0.90520000
H       -1.04030000      -0.23550000       0.09210000
H        0.10800000      -1.38780000      -1.63050000
H        0.99010000       0.10690000      -1.93460000
H        3.51140000      -2.25150000       1.15980000
H        2.53670000      -1.70330000       2.49530000
H       -0.63780000       0.04250000       2.57690000
