17
Properties=species:S:1:pos:R:3 pbc="F F F"
C        0.38580000       1.38540000       0.05930000
C       -0.11370000      -0.05830000      -0.01540000
O       -1.52980000      -0.11020000      -0.08820000
C        0.55610000      -0.83660000      -1.17510000
O        1.77260000      -1.37050000      -0.63760000
C        1.68820000      -1.45080000       0.73010000
N        2.59760000      -1.90830000       1.47440000
C        0.35700000      -0.89860000       1.18060000
H        1.47720000       1.42120000       0.13030000
H        0.09420000       1.94430000      -0.83860000
H       -0.03620000       1.88880000       0.93360000
H       -1.82600000       0.55740000      -0.71560000
H       -0.10400000      -1.65110000      -1.49640000
H        0.81300000      -0.21600000      -2.03850000
H        3.38880000      -2.23020000       0.91360000
H        0.44680000      -0.34820000       2.11730000
H       -0.35180000      -1.71960000       1.33360000
