21
Properties=species:S:1:pos:R:3 pbc="F F F"
C        0.13290000       1.59120000       0.01020000
C       -0.04510000       0.06760000      -0.00940000
C        0.42720000      -0.54380000      -1.35260000
C        1.32910000      -1.74880000      -1.18050000
C        2.44710000      -1.80400000      -0.17360000
C        1.25130000      -2.73370000      -0.03840000
C        0.88050000      -2.06120000       1.31100000
C        2.06640000      -1.11920000       1.16820000
C        0.65470000      -0.57910000       1.17310000
H        1.19310000       1.85770000      -0.06780000
H       -0.39350000       2.05980000      -0.82840000
H       -0.25560000       2.02840000       0.93680000
H       -1.11610000      -0.14340000       0.10930000
H       -0.43910000      -0.81960000      -1.96450000
H        0.97630000       0.21180000      -1.92940000
H        1.59790000      -2.23170000      -2.11820000
H        3.46680000      -2.04990000      -0.44150000
H        1.20780000      -3.80370000      -0.19690000
H        0.56490000      -2.62100000       2.18230000
H        2.79740000      -0.84050000       1.91640000
H        0.40250000      -0.11530000       2.12590000
