19
Properties=species:S:1:pos:R:3 pbc="F F F"
C       -0.02890000       1.51630000      -0.02000000
C        1.30540000       0.80610000      -0.03660000
C        0.01610000       0.00570000      -0.05030000
C        0.14650000      -0.70560000      -1.39350000
C        1.65820000      -1.17690000      -1.43030000
C        1.88680000      -1.52000000      -2.89310000
O        1.20650000      -0.41340000      -3.52070000
C        0.73510000       0.32670000      -2.40010000
C        1.90570000       0.38660000      -1.37470000
H       -0.31360000       1.95860000       0.92980000
H       -0.37190000       2.08360000      -0.87730000
H        1.94700000       0.85620000       0.83570000
H       -0.32670000      -0.55540000       0.81150000
H       -0.65320000      -1.37510000      -1.71390000
H        2.06190000      -1.84030000      -0.66440000
H        2.94400000      -1.52800000      -3.18630000
H        1.42970000      -2.46810000      -3.20240000
H        0.19610000       1.20090000      -2.75860000
H        2.86530000       0.80930000      -1.67640000
