18
Properties=species:S:1:pos:R:3 pbc="F F F"
C       -0.11480000       1.51180000      -0.05160000
C        0.10680000      -0.00420000       0.04700000
C        0.71540000      -0.56860000      -1.19580000
C        0.02730000      -1.00230000      -2.45240000
C        0.96030000      -1.96210000      -1.73670000
C        2.39600000      -1.48610000      -1.96510000
O        2.06270000      -0.14680000      -1.52610000
C        3.38590000      -2.10910000      -1.08140000
N        4.16160000      -2.62060000      -0.39490000
H        0.83070000       2.02820000      -0.24020000
H       -0.80250000       1.75820000      -0.86670000
H       -0.53540000       1.90250000       0.87910000
H        0.76020000      -0.23190000       0.89730000
H       -0.84500000      -0.51750000       0.22760000
H       -1.02380000      -1.25400000      -2.34980000
H        0.30660000      -0.56560000      -3.40730000
H        0.67160000      -2.93620000      -1.36850000
H        2.77040000      -1.50070000      -2.99570000
