21
Properties=species:S:1:pos:R:3 pbc="F F F"
C       -0.11300000       1.52160000      -0.18340000
C        0.08030000       0.00870000      -0.04480000
C        0.74100000      -0.43370000       1.27610000
C        0.57260000      -1.95580000       1.48210000
C        1.45270000      -2.52530000       2.58750000
O        2.67410000      -3.14600000       2.16680000
C        2.74450000      -1.88390000       2.86360000
C        3.11040000      -0.68440000       2.06900000
C        2.19620000      -0.02380000       1.35740000
H        0.83700000       2.06490000      -0.15280000
H       -0.59820000       1.76790000      -1.13290000
H       -0.74240000       1.91370000       0.62330000
H       -0.89810000      -0.48250000      -0.12000000
H        0.67670000      -0.37170000      -0.88450000
H        0.20780000       0.08230000       2.09150000
H       -0.47990000      -2.18050000       1.68590000
H        0.83670000      -2.47270000       0.55230000
H        0.94840000      -3.05540000       3.39490000
H        3.18050000      -1.96330000       3.85930000
H        4.14430000      -0.35180000       2.09550000
H        2.49260000       0.86430000       0.80460000
