16
Properties=species:S:1:pos:R:3 pbc="F F F"
C        0.17890000      -1.08440000       0.36730000
C        0.05730000       0.08820000       0.13570000
C       -0.08170000       1.48930000      -0.14500000
N       -1.12310000       2.11820000       0.21390000
C       -1.28640000       3.52620000      -0.11140000
C       -0.07850000       4.21210000      -0.72400000
C        1.21640000       4.30340000       0.05980000
C        1.08040000       3.33480000      -1.08160000
O        1.02040000       1.95480000      -0.80200000
H        0.27660000      -2.12110000       0.57700000
H       -2.12900000       3.59600000      -0.81210000
H       -1.61530000       4.04290000       0.79990000
H       -0.30210000       5.02850000      -1.40340000
H        1.85260000       5.17070000      -0.07540000
H        1.22560000       3.88200000       1.06010000
H        1.63750000       3.49240000      -1.99700000
