20
Properties=species:S:1:pos:R:3 pbc="F F F"
C        1.02360000       1.26040000      -0.49090000
C        0.33640000      -0.03500000      -0.03400000
C        0.46960000      -1.20950000      -1.04540000
C        1.45940000      -2.18370000      -0.42470000
C        2.75800000      -1.65990000       0.06630000
N        1.64390000      -1.89040000       1.00760000
C        0.84700000      -0.68570000       1.30200000
C        1.56710000       0.20750000       2.29540000
O        1.23250000       1.33090000       2.57440000
H        2.09320000       1.13350000      -0.68480000
H        0.56490000       1.60610000      -1.42330000
H        0.91120000       2.04590000       0.25820000
H       -0.72200000       0.20550000       0.09760000
H       -0.49180000      -1.71620000      -1.17970000
H        0.78840000      -0.86040000      -2.03280000
H        1.37770000      -3.23400000      -0.69070000
H        3.59680000      -2.33650000       0.20070000
H        3.04070000      -0.64220000      -0.18450000
H       -0.03650000      -1.04520000       1.85140000
H        2.43330000      -0.28190000       2.79360000
