20
Properties=species:S:1:pos:R:3 pbc="F F F"
C       -0.00490000       1.53040000      -0.00710000
C        0.00260000      -0.01540000       0.00030000
C        0.75000000      -0.52490000       1.25340000
C       -1.45040000      -0.54150000       0.01190000
C        0.68680000      -0.49920000      -1.20540000
C        1.24740000      -0.90230000      -2.19220000
C        1.92900000      -1.36780000      -3.39320000
O        1.96900000      -2.79140000      -3.40260000
H        1.01430000       1.92710000      -0.01670000
H       -0.52790000       1.91530000      -0.88720000
H       -0.51270000       1.90760000       0.88730000
H        0.24990000      -0.16920000       2.16090000
H        0.77110000      -1.61800000       1.27700000
H        1.78280000      -0.16550000       1.26550000
H       -1.99920000      -0.19280000      -0.86740000
H       -1.46890000      -1.63490000       0.01170000
H       -1.97230000      -0.18740000       0.90760000
H        1.40190000      -0.98090000      -4.28100000
H        2.94620000      -0.94320000      -3.41910000
H        2.42930000      -3.05820000      -4.20490000
