20
Properties=species:S:1:pos:R:3 pbc="F F F"
C        0.01070000       1.28780000      -0.18040000
C        0.31490000      -0.16850000       0.08720000
C        1.71300000      -0.70720000       0.08850000
C        0.92640000      -0.67940000       1.39410000
C        1.34730000       0.32580000       2.41340000
O        2.02680000       1.30140000       2.19500000
N        0.35430000      -1.84200000       2.03450000
C        0.12330000      -3.06680000       1.28460000
C        1.22060000      -2.99520000       2.28720000
H        0.77140000       1.93910000       0.25310000
H       -0.02000000       1.46850000      -1.26040000
H       -0.96270000       1.57180000       0.23340000
H       -0.43680000      -0.85850000      -0.29080000
H        1.91090000      -1.66830000      -0.37390000
H        2.52700000       0.00840000       0.03260000
H        0.96490000       0.09630000       3.43080000
H       -0.80520000      -3.58170000       1.51490000
H        0.41130000      -3.11050000       0.23660000
H        2.23730000      -2.95790000       1.90130000
H        1.11320000      -3.46020000       3.26260000
