16
Properties=species:S:1:pos:R:3 pbc="F F F"
O        0.05820000       1.39630000      -0.01590000
C        0.00040000       0.03120000       0.00510000
C        0.00770000      -0.81920000       1.33350000
N       -1.42920000      -0.42200000       1.56780000
C       -1.34820000      -0.78120000       0.10430000
C       -0.40670000      -1.99480000       0.39130000
C        0.61090000      -2.16480000      -0.73640000
C        0.87900000      -0.68290000      -0.98700000
O        1.60800000      -0.13040000      -1.77420000
H        0.69490000       1.61900000      -0.71390000
H        0.76120000      -0.80470000       2.12280000
H       -1.90670000      -1.17820000       2.07110000
H       -2.20620000      -0.72150000      -0.56740000
H       -0.85390000      -2.87190000       0.85750000
H        1.52430000      -2.69150000      -0.44110000
H        0.21240000      -2.65520000      -1.63060000
