25
Properties=species:S:1:pos:R:3 pbc="F F F"
C       -0.06040000       1.51740000       0.01670000
C        0.01210000      -0.00900000      -0.01540000
C        0.85600000      -0.54780000      -1.20660000
C        1.49220000      -1.88250000      -0.71320000
C        0.97090000      -2.07060000       0.73550000
C        0.76120000      -0.61630000       1.19140000
C       -0.38160000      -2.80830000       0.77100000
C       -1.40820000      -2.14780000      -0.16660000
C       -1.41300000      -0.61370000      -0.04080000
H        0.94030000       1.95860000       0.08650000
H       -0.53680000       1.91300000      -0.88800000
H       -0.64220000       1.87060000       0.87590000
H        0.24610000      -0.67980000      -2.10620000
H        1.63660000       0.17620000      -1.46250000
H        1.23830000      -2.73300000      -1.35380000
H        2.58390000      -1.80640000      -0.71200000
H        1.69460000      -2.60510000       1.35880000
H        1.72420000      -0.11010000       1.33530000
H        0.19820000      -0.53290000       2.12780000
H       -0.24990000      -3.86080000       0.49260000
H       -0.75820000      -2.80280000       1.80250000
H       -1.17150000      -2.42030000      -1.20240000
H       -2.41100000      -2.54560000       0.02470000
H       -1.92890000      -0.31750000       0.88290000
H       -1.98760000      -0.17800000      -0.86820000
