19
Properties=species:S:1:pos:R:3 pbc="F F F"
N       -0.13530000      -1.14040000       0.21460000
C       -0.05720000       0.01430000       0.19850000
C        0.03600000       1.44730000       0.17430000
C        0.79280000       2.16990000       1.28110000
C        1.37040000       2.13030000      -0.10090000
C        2.60710000       1.31880000      -0.41680000
N        3.80040000       2.14100000      -0.25250000
C        4.45330000       2.09770000       1.05260000
C        5.06440000       1.42470000      -0.12660000
H       -0.85020000       1.93450000      -0.21770000
H        0.35910000       3.09200000       1.64960000
H        1.24900000       1.54600000       2.04130000
H        1.29040000       3.04410000      -0.68120000
H        2.63000000       0.40750000       0.20650000
H        2.57040000       0.98830000      -1.46190000
H        4.84670000       3.04180000       1.41780000
H        4.02380000       1.45560000       1.82010000
H        5.03890000       0.33620000      -0.14430000
H        5.91150000       1.86880000      -0.64120000
