18
Properties=species:S:1:pos:R:3 pbc="F F F"
C        0.29430000       1.34760000       0.04380000
N       -0.26570000       0.01150000       0.02400000
C       -0.14080000      -0.90710000      -1.02520000
O       -0.10510000      -0.75740000      -2.21590000
C       -0.01020000      -2.06520000      -0.02900000
O       -0.61590000      -3.29660000      -0.07070000
C        1.18840000      -1.74370000       0.88000000
C       -0.12870000      -1.02710000       1.06300000
C       -0.97570000      -1.01730000       2.29680000
H        1.33040000       1.36020000       0.41170000
H        0.28160000       1.72880000      -0.98020000
H       -0.30550000       2.01330000       0.67180000
H       -0.07180000      -3.88810000      -0.60260000
H        1.40360000      -2.53230000       1.59690000
H        2.06100000      -1.22270000       0.49660000
H       -0.63860000      -0.25740000       3.01030000
H       -2.01950000      -0.81040000       2.04230000
H       -0.92680000      -1.98960000       2.79510000
