22
Properties=species:S:1:pos:R:3 pbc="F F F"
C       -0.07320000       1.55600000       0.15090000
C       -0.02980000       0.03280000       0.07810000
O        0.72740000      -0.50450000       1.18250000
C       -1.42340000      -0.60270000      -0.00510000
C       -1.40100000      -2.13000000      -0.19590000
O       -0.79510000      -2.78970000       0.90320000
C       -2.80700000      -2.68300000      -0.35550000
C       -3.10840000      -4.09180000      -0.01810000
N       -3.60190000      -2.99490000       0.84200000
H        0.93780000       1.96300000       0.23890000
H       -0.54190000       1.97790000      -0.74320000
H       -0.65690000       1.88800000       1.01870000
H        0.55000000      -0.26970000      -0.80270000
H        0.34790000      -0.14820000       1.99480000
H       -1.99330000      -0.36160000       0.90300000
H       -1.96270000      -0.15010000      -0.84630000
H       -0.84170000      -2.34700000      -1.12500000
H       -0.02960000      -2.25270000       1.15900000
H       -3.37470000      -2.20710000      -1.15360000
H       -3.87870000      -4.62650000      -0.56670000
H       -2.29210000      -4.70050000       0.35660000
H       -2.96980000      -2.93450000       1.63940000
