20
Properties=species:S:1:pos:R:3 pbc="F F F"
C       -0.09580000       1.51820000       0.02320000
C        0.02190000      -0.00160000       0.01000000
C        0.83590000      -0.59810000      -1.18400000
C        2.10880000      -0.44480000      -0.30120000
C        1.14800000      -0.61100000       0.91680000
C        0.86240000      -2.08980000       1.07850000
C        0.55010000      -2.79140000      -0.01220000
C        0.49290000      -2.09030000      -1.35310000
H        0.86860000       2.01370000      -0.12650000
H       -0.76850000       1.86120000      -0.77140000
H       -0.50360000       1.87060000       0.97720000
H       -0.96650000      -0.44730000       0.16460000
H        0.80180000      -0.06600000      -2.13940000
H        2.90230000      -1.18790000      -0.41220000
H        2.53730000       0.55710000      -0.36760000
H        1.39080000      -0.10940000       1.85590000
H        0.91670000      -2.54670000       2.06200000
H        0.33620000      -3.85570000       0.02850000
H       -0.50700000      -2.20150000      -1.79710000
H        1.18790000      -2.56520000      -2.06060000
