12
Properties=species:S:1:pos:R:3 pbc="F F F"
N       -0.00480000       1.39250000       0.14900000
C        0.03470000       0.01720000       0.04010000
N       -1.07540000      -0.69810000       0.00720000
O       -0.67570000      -2.02860000      -0.01410000
C        0.66510000      -2.07940000      -0.01040000
C        1.33910000      -3.38480000      -0.03610000
O        0.77830000      -4.45210000      -0.06130000
C        1.18770000      -0.82000000       0.02430000
H        0.73210000       1.87820000      -0.34050000
H       -0.91630000       1.78260000      -0.04950000
H        2.44650000      -3.29640000      -0.03020000
H        2.22630000      -0.53300000       0.04810000
