21
Properties=species:S:1:pos:R:3 pbc="F F F"
C        0.09510000       1.59070000       0.03980000
C        0.05750000       0.06160000       0.01560000
C       -1.38370000      -0.48850000       0.02960000
C       -1.44650000      -1.94490000       0.00780000
C       -1.47320000      -3.15010000      -0.00140000
C       -1.47280000      -4.58710000      -0.03880000
O       -1.91670000      -5.29270000       1.13730000
C       -2.71700000      -5.39200000      -0.03820000
C       -4.09100000      -4.77990000       0.00500000
H        1.12490000       1.95990000       0.03200000
H       -0.41750000       2.01540000      -0.83060000
H       -0.39360000       1.98620000       0.93720000
H        0.57130000      -0.31490000      -0.87590000
H        0.59840000      -0.34370000       0.87780000
H       -1.90550000      -0.11720000       0.92210000
H       -1.93580000      -0.08400000      -0.82980000
H       -0.59230000      -5.03260000      -0.50280000
H       -2.65510000      -6.36700000      -0.52740000
H       -4.05480000      -3.77420000       0.42870000
H       -4.51200000      -4.72160000      -1.00440000
H       -4.76070000      -5.39490000       0.61500000
