16
Properties=species:S:1:pos:R:3 pbc="F F F"
C       -0.01550000       1.47680000       0.06100000
C       -0.00190000      -0.01170000      -0.04050000
C       -0.04300000      -0.83380000      -1.14430000
C       -0.00190000      -2.17960000      -0.65850000
C        0.06170000      -2.10180000       0.71990000
N        0.10090000      -3.38400000       1.19870000
C        0.05800000      -4.18510000       0.05890000
N       -0.00310000      -3.50410000      -1.05860000
N        0.06290000      -0.79880000       1.12250000
H        0.89090000       1.87170000       0.53870000
H       -0.07590000       1.91240000      -0.93880000
H       -0.87430000       1.84870000       0.63530000
H       -0.09570000      -0.49260000      -2.16660000
H        0.14970000      -3.70450000       2.14940000
H        0.07620000      -5.26140000       0.14490000
H        0.10180000      -0.43720000       2.05820000
