16
Properties=species:S:1:pos:R:3 pbc="F F F"
C       -1.20240000       0.67020000      -0.19130000
C        0.28140000       0.42210000      -0.05830000
O        0.97080000       0.90100000       0.81140000
C        0.90960000      -0.47990000      -1.12130000
C        2.10340000      -1.34290000      -0.68230000
C        1.18480000      -2.53920000      -1.04840000
O        0.10020000      -1.65510000      -1.40690000
C        1.62430000      -3.36590000      -2.17530000
N        1.98540000      -4.01840000      -3.05790000
H       -1.41740000       1.14660000      -1.15510000
H       -1.73760000      -0.28410000      -0.18950000
H       -1.54840000       1.30810000       0.62230000
H        1.07090000       0.11360000      -2.03250000
H        3.00760000      -1.25130000      -1.28120000
H        2.34380000      -1.25600000       0.37630000
H        0.90870000      -3.19490000      -0.21520000
