21
Properties=species:S:1:pos:R:3 pbc="F F F"
C       -0.20490000       1.61340000       0.20010000
C       -0.06860000       0.09800000       0.16640000
C        0.71090000      -0.55630000      -1.00340000
C        1.27350000      -1.60130000      -0.00590000
O        2.58600000      -2.05240000      -0.13210000
C        0.88880000      -0.64880000       1.18420000
C        2.02700000       0.21720000       1.66840000
C        1.90720000       0.79340000       3.06370000
O        2.99880000       0.45550000       0.97130000
H        0.77010000       2.10540000       0.12660000
H       -0.81180000       1.95610000      -0.64500000
H       -0.69540000       1.95940000       1.11710000
H       -1.05880000      -0.35940000       0.25950000
H        0.14080000      -0.91820000      -1.86240000
H        1.51310000       0.09930000      -1.35510000
H        0.63830000      -2.49180000       0.02790000
H        3.14630000      -1.26610000      -0.05600000
H        0.38120000      -1.10550000       2.03840000
H        1.94160000      -0.01970000       3.79860000
H        2.72290000       1.49170000       3.25500000
H        0.94170000       1.29440000       3.19320000
