18
Properties=species:S:1:pos:R:3 pbc="F F F"
C        0.03000000       1.54270000      -0.09960000
C        0.00060000       0.04900000       0.00380000
C        0.42670000      -1.08700000      -0.94760000
C        1.20680000      -1.76710000       0.17120000
C        0.46170000      -0.84320000       1.20190000
C       -0.78770000      -1.56750000       1.62640000
N       -1.06370000      -2.01860000       2.77160000
O       -1.57160000      -1.71730000       0.50200000
C       -1.01780000      -0.89730000      -0.52040000
H        1.04480000       1.93550000       0.02780000
H       -0.33280000       1.87230000      -1.07880000
H       -0.60540000       2.00500000       0.66460000
H        0.70840000      -1.03580000      -1.99370000
H        1.09940000      -2.84840000       0.30180000
H        2.26710000      -1.50960000       0.12810000
H        1.03870000      -0.42360000       2.02070000
H       -1.96300000      -2.50340000       2.75880000
H       -1.75390000      -0.60460000      -1.25790000
