17
Properties=species:S:1:pos:R:3 pbc="F F F"
O        0.30550000       0.20260000       1.07020000
C        0.22070000       1.32860000       0.64210000
N        1.12330000       1.92460000      -0.21780000
C        0.84040000       3.25470000      -0.76840000
C        2.10900000       3.95180000      -1.20950000
C        3.33600000       3.97070000      -0.34070000
C        3.28070000       3.06340000      -1.55800000
N        3.20000000       1.65020000      -1.35410000
C        2.21030000       1.18450000      -0.70860000
H       -0.60220000       2.01970000       0.90920000
H        0.17450000       3.15770000      -1.63670000
H        0.30390000       3.83390000      -0.00810000
H        1.93050000       4.81780000      -1.83950000
H        3.97770000       4.84370000      -0.38010000
H        3.29360000       3.48300000       0.62760000
H        3.90280000       3.33430000      -2.40350000
H        2.14280000       0.12690000      -0.47310000
