17
Properties=species:S:1:pos:R:3 pbc="F F F"
N       -0.00760000      -1.06220000       0.11520000
C       -0.02690000       0.09160000       0.04160000
C       -0.01280000       1.53240000      -0.07400000
C        0.56870000       2.12430000      -1.34910000
C        1.34740000       2.21890000      -0.05550000
N        1.41020000       3.48580000       0.63090000
C        0.43670000       3.59520000       1.71720000
C       -0.94900000       3.39670000       1.12390000
O       -1.11710000       2.08830000       0.57390000
H        0.89520000       1.43790000      -2.12150000
H        0.10960000       3.04360000      -1.69480000
H        2.20800000       1.56420000       0.05530000
H        2.35060000       3.66620000       0.95500000
H        0.59110000       2.86230000       2.52750000
H        0.50170000       4.59900000       2.14850000
H       -1.72520000       3.48880000       1.88750000
H       -1.12410000       4.15690000       0.34950000
