27
Properties=species:S:1:pos:R:3 pbc="F F F"
C        0.70060000      -0.57970000       1.30500000
C        0.10220000      -0.08380000      -0.01670000
C        0.83680000      -0.53530000      -1.30010000
C        2.27650000       0.01290000      -1.40330000
C        2.39310000       1.54020000      -1.37500000
C        0.86060000      -2.06330000      -1.51740000
C       -0.49630000      -2.75760000      -1.66410000
C       -0.36330000      -4.14680000      -2.29230000
O       -1.07680000      -2.85550000      -0.36110000
H        0.64480000      -1.66880000       1.37860000
H        1.74680000      -0.27920000       1.42800000
H        0.14340000      -0.16660000       2.15230000
H       -0.93500000      -0.42430000      -0.07360000
H        0.06680000       1.01210000      -0.00870000
H        0.27490000      -0.10510000      -2.14440000
H        2.89210000      -0.41540000      -0.60160000
H        2.71510000      -0.35510000      -2.34000000
H        1.76350000       1.99980000      -2.14590000
H        2.09260000       1.95910000      -0.41010000
H        3.42520000       1.85490000      -1.56010000
H        1.43180000      -2.26060000      -2.43300000
H        1.40490000      -2.56090000      -0.70480000
H       -1.14090000      -2.13800000      -2.31140000
H        0.30370000      -4.77500000      -1.69290000
H       -1.33890000      -4.64450000      -2.34810000
H        0.03550000      -4.08530000      -3.31000000
H       -1.93080000      -3.29080000      -0.44790000
