23
Properties=species:S:1:pos:R:3 pbc="F F F"
C       -0.50360000       1.40610000       0.02130000
C        0.18210000       0.05680000      -0.03050000
O        1.47900000       0.10760000      -0.66950000
C        2.04140000      -0.77540000       0.31880000
C        0.80120000      -0.61930000       1.24090000
C        1.07290000       0.34880000       2.39060000
C        0.12860000      -1.91590000       1.64360000
C        0.41430000      -2.65140000       2.93130000
C       -0.93440000      -2.01230000       2.71290000
H        0.10020000       2.15210000       0.54350000
H       -0.67960000       1.76670000      -0.99740000
H       -1.47430000       1.32320000       0.52190000
H       -0.46920000      -0.65640000      -0.56100000
H        2.18390000      -1.79290000      -0.07220000
H        2.99790000      -0.40430000       0.70590000
H        1.59720000       1.23700000       2.02760000
H        0.15200000       0.68380000       2.87780000
H        1.71020000      -0.11400000       3.15070000
H       -0.03930000      -2.56800000       0.78900000
H        0.48790000      -3.73260000       2.89130000
H        1.07470000      -2.19360000       3.65890000
H       -1.16840000      -1.12730000       3.29390000
H       -1.78860000      -2.65360000       2.52560000
