16
Properties=species:S:1:pos:R:3 pbc="F F F"
C        0.02590000       1.44950000       0.06090000
C        0.02720000      -0.05840000      -0.03050000
O        1.06730000      -0.70360000      -0.06010000
C       -1.28970000      -0.74760000      -0.03680000
O       -2.43450000       0.04390000       0.09270000
C       -1.39720000      -2.07160000      -0.80230000
C       -1.32650000      -2.11270000       0.68720000
O       -0.23990000      -2.60570000       1.37050000
H        1.05330000       1.81100000       0.10620000
H       -0.48330000       1.88610000      -0.80570000
H       -0.53550000       1.77300000       0.94260000
H       -2.72120000       0.31430000      -0.78710000
H       -2.35390000      -2.25860000      -1.27880000
H       -0.51530000      -2.37220000      -1.35820000
H       -2.25340000      -2.27860000       1.22630000
H        0.55400000      -2.25010000       0.93370000
