17
Properties=species:S:1:pos:R:3 pbc="F F F"
C       -0.00900000       1.51710000      -0.01190000
C        1.43210000       2.04100000       0.06060000
O        2.10640000       1.66660000       1.26560000
C        1.92610000       0.35400000       1.54970000
C        0.97790000      -0.45880000       0.98280000
C       -0.05000000      -0.02880000      -0.00650000
N        1.18580000      -1.68550000       1.59310000
C        2.21850000      -1.52980000       2.46840000
N        2.69280000      -0.29980000       2.46640000
H       -0.56360000       1.90120000       0.85120000
H       -0.48610000       1.91520000      -0.91300000
H        2.00830000       1.66750000      -0.79950000
H        1.45160000       3.13300000       0.04020000
H       -1.05660000      -0.37450000       0.26150000
H        0.15380000      -0.42080000      -1.01350000
H        0.67290000      -2.53350000       1.42090000
H        2.58570000      -2.34240000       3.07650000
