16
Properties=species:S:1:pos:R:3 pbc="F F F"
C        0.00560000       1.52250000       0.01260000
C        0.03700000       0.02550000       0.02140000
C       -0.85360000      -0.83930000       0.86120000
C        0.65230000      -0.97150000       1.03270000
C        1.22680000      -1.72710000      -0.17110000
N        0.64230000      -0.71270000      -1.09480000
C        1.31770000      -0.72330000       2.26490000
N        1.86650000      -0.52240000       3.26490000
H        0.97650000       1.92580000      -0.28670000
H       -0.74660000       1.88420000      -0.69860000
H       -0.25210000       1.91430000       1.00060000
H       -1.35800000      -0.34250000       1.68350000
H       -1.40180000      -1.67120000       0.42390000
H        2.31920000      -1.71980000      -0.21030000
H        0.86660000      -2.75520000      -0.29200000
H       -0.03900000      -1.08770000      -1.75060000
