17
Properties=species:S:1:pos:R:3 pbc="F F F"
C       -0.30370000       1.51690000      -0.04000000
N        0.10000000       0.10520000       0.05830000
C        0.70050000      -0.43730000      -1.13800000
C        0.57590000      -1.98440000      -1.29870000
O       -0.19450000      -1.80890000      -2.52480000
C       -0.16280000      -0.44140000      -2.40160000
N       -0.65670000       0.45980000      -3.11780000
C        2.13600000       0.02500000      -1.40250000
O        2.77820000       0.64360000      -0.59560000
H        0.52330000       2.20070000      -0.27630000
H       -1.06850000       1.62360000      -0.81080000
H       -0.73450000       1.81230000       0.92020000
H        0.79410000       0.03010000       0.79820000
H        1.49010000      -2.55130000      -1.49090000
H       -0.02240000      -2.44100000      -0.50890000
H       -1.18540000       0.06990000      -3.90060000
H        2.56650000      -0.28340000      -2.38090000
