18
Properties=species:S:1:pos:R:3 pbc="F F F"
O       -0.01580000       0.00170000      -0.02310000
C       -0.03110000       1.20190000      -0.01010000
C       -1.26620000       2.12620000      -0.05750000
N       -0.74650000       3.49820000       0.07890000
C        0.57440000       3.41070000      -0.59850000
C        1.18710000       2.16500000       0.04210000
O        1.53900000       2.45870000       1.39710000
C        0.42590000       2.83810000       2.20650000
C       -0.49850000       3.84340000       1.49320000
H       -1.76210000       2.00810000      -1.02980000
H       -1.99260000       1.87030000       0.71820000
H        0.42380000       3.28820000      -1.67780000
H        1.16600000       4.31100000      -0.42080000
H        2.07450000       1.74260000      -0.42980000
H       -0.13990000       1.94140000       2.50490000
H        0.84670000       3.27380000       3.11710000
H       -0.05030000       4.84230000       1.50710000
H       -1.45570000       3.90380000       2.02300000
