17
Properties=species:S:1:pos:R:3 pbc="F F F"
C       -0.01710000       1.52340000       0.05250000
C       -0.03490000       0.02540000       0.01580000
C       -1.16060000      -0.71480000       0.11540000
C       -1.12920000      -2.15720000       0.06820000
N       -2.33220000      -2.86820000       0.25310000
C        0.07610000      -2.74130000      -0.07650000
O        1.23690000      -2.02910000      -0.14710000
C        1.25530000      -0.64800000      -0.12600000
N        2.35490000      -0.01040000      -0.22110000
H        0.60850000       1.87990000       0.87720000
H        0.43290000       1.92520000      -0.86100000
H       -1.02640000       1.92720000       0.16530000
H       -2.12330000      -0.22680000       0.24350000
H       -3.09090000      -2.49720000      -0.30700000
H       -2.23760000      -3.85840000       0.06430000
H        0.25650000      -3.80730000      -0.12930000
H        3.13710000      -0.65950000      -0.30930000
