15
Properties=species:S:1:pos:R:3 pbc="F F F"
C       -0.00190000       1.52330000       0.01070000
O        1.21880000       0.72750000      -0.00620000
C       -0.01540000       0.07620000       0.00270000
C       -0.56570000      -1.02730000       0.92600000
O       -1.73910000      -1.07340000       0.01380000
C       -0.58450000      -1.01700000      -0.92150000
C        0.12350000      -2.03990000      -0.01050000
C        1.34070000      -2.83370000      -0.02730000
O        0.01150000      -3.42300000      -0.01710000
H       -0.18090000       2.06580000       0.93640000
H       -0.19960000       2.07610000      -0.90510000
H       -0.74490000      -1.04800000       1.99890000
H       -0.78540000      -1.02570000      -1.99070000
H        1.89410000      -2.96480000      -0.95480000
H        1.91280000      -2.97510000       0.88720000
