19
Properties=species:S:1:pos:R:3 pbc="F F F"
O       -0.63980000       0.75260000       0.77450000
C        0.00580000       1.02420000      -0.20460000
C        1.32190000       1.76680000      -0.20060000
C        1.27100000       3.02250000      -1.08940000
C        2.61520000       3.73470000      -1.19080000
C        3.79200000       3.03660000      -1.97880000
C        3.81450000       4.24780000      -2.91890000
O        2.51060000       4.34900000      -3.50490000
C        2.71060000       4.89820000      -2.19700000
H       -0.35070000       0.73690000      -1.22260000
H        1.58170000       2.01110000       0.83390000
H        2.08800000       1.08070000      -0.59120000
H        0.94280000       2.75360000      -2.10000000
H        0.52240000       3.71800000      -0.68810000
H        2.96210000       4.05070000      -0.20140000
H        4.69700000       2.92770000      -1.37720000
H        3.56140000       2.08620000      -2.46780000
H        4.64140000       4.67050000      -3.47720000
H        2.46550000       5.94520000      -2.05780000
