19
Properties=species:S:1:pos:R:3 pbc="F F F"
C       -0.01140000       1.62120000      -0.18600000
C        1.55330000       1.42640000       0.02950000
C        1.14400000       0.14590000       0.80120000
C        0.77880000       0.20950000       2.36420000
C       -0.70940000      -0.17050000       2.35870000
C       -0.58750000      -0.98610000       1.06820000
C       -0.12350000       0.06610000       0.01890000
C        1.05440000      -1.34980000       1.22990000
O        1.40060000      -1.09330000       2.57610000
H       -0.44750000       2.20460000       0.62900000
H       -0.34460000       2.03670000      -1.14010000
H        2.05940000       1.22110000      -0.91750000
H        2.10110000       2.20030000       0.57330000
H        1.16170000       0.98300000       3.02950000
H       -0.96010000      -0.75520000       3.24620000
H       -1.40110000       0.67010000       2.26280000
H       -1.33140000      -1.75040000       0.84440000
H        0.08060000      -0.42640000      -0.93840000
H        1.47430000      -2.24930000       0.77970000
