18
Properties=species:S:1:pos:R:3 pbc="F F F"
O        0.03910000       0.04270000       0.33960000
C        0.01380000       1.18180000      -0.03640000
C        1.27390000       2.05150000      -0.13210000
C        1.20200000       2.93990000      -1.29060000
N        1.11690000       3.64850000      -2.19980000
C        1.42280000       2.85820000       1.17990000
C        1.71510000       2.07350000       2.48820000
C        2.69320000       3.21050000       2.89270000
C        2.73110000       3.66450000       1.40750000
H       -0.93320000       1.70240000      -0.29320000
H        2.13070000       1.37770000      -0.23810000
H        0.54890000       3.50680000       1.30060000
H        0.87150000       1.85860000       3.14680000
H        2.23910000       1.13560000       2.28260000
H        2.21080000       3.95380000       3.53280000
H        3.63940000       2.91840000       3.35180000
H        3.57260000       3.21760000       0.86910000
H        2.70620000       4.73350000       1.18950000
