21
Properties=species:S:1:pos:R:3 pbc="F F F"
O       -0.06520000       1.46770000       0.06370000
C        0.04030000       0.05130000       0.05430000
C       -1.37100000      -0.51680000      -0.03130000
C       -1.40520000      -2.04750000      -0.01920000
O       -0.77700000      -2.57800000       1.15070000
C       -2.82830000      -2.59270000      -0.18420000
C       -2.86600000      -4.13290000      -0.22680000
C       -4.21860000      -4.66580000      -0.32270000
C       -5.34510000      -5.07840000      -0.40050000
H        0.81870000       1.83270000       0.16310000
H        0.63160000      -0.29970000      -0.80780000
H        0.53310000      -0.32570000       0.96120000
H       -1.95990000      -0.12820000       0.81130000
H       -1.85060000      -0.14310000      -0.94350000
H       -0.78580000      -2.42550000      -0.84430000
H       -1.26200000      -2.24620000       1.91560000
H       -3.45230000      -2.23700000       0.64650000
H       -3.27200000      -2.18750000      -1.10030000
H       -2.27140000      -4.48680000      -1.07970000
H       -2.36890000      -4.52230000       0.66850000
H       -6.33440000      -5.45720000      -0.46980000
