21
Properties=species:S:1:pos:R:3 pbc="F F F"
C        0.15520000       1.56550000       0.13480000
C        0.05590000       0.05280000       0.04290000
C        1.04220000      -0.64950000      -0.86700000
C        1.19340000      -0.75340000       0.63150000
C       -1.32290000      -0.56560000       0.13810000
C       -2.27840000      -0.27080000       1.36360000
C       -3.36200000       0.12970000       0.35510000
O       -2.84800000       1.23610000      -0.39400000
C       -2.46000000      -0.08730000      -0.78800000
H        1.19970000       1.88280000       0.05080000
H       -0.41750000       2.05540000      -0.65660000
H       -0.22740000       1.93880000       1.09040000
H        0.71250000      -1.52980000      -1.40930000
H        1.75360000      -0.03810000      -1.41190000
H        2.00830000      -0.21370000       1.10240000
H        0.96360000      -1.70410000       1.10200000
H       -1.23030000      -1.65250000       0.03320000
H       -2.51020000      -1.17050000       1.93790000
H       -1.97950000       0.52860000       2.04480000
H       -4.43930000       0.04130000       0.42990000
H       -2.66740000      -0.37100000      -1.81380000
