20
Properties=species:S:1:pos:R:3 pbc="F F F"
C       -0.47100000       1.50010000      -0.37670000
C        0.01770000       0.15580000       0.16480000
N        0.74490000      -0.56810000      -0.88860000
C        1.96630000      -1.31580000      -0.80310000
C        2.00820000      -2.34890000       0.38960000
O        0.81850000      -2.20900000       1.17360000
C        0.75580000      -2.94890000      -0.05000000
C        0.67660000      -1.94330000      -1.27900000
C        0.20180000      -2.36940000      -2.63580000
H        0.37040000       2.11470000      -0.71150000
H       -1.14030000       1.35710000      -1.23090000
H       -1.01490000       2.05260000       0.39750000
H        0.67100000       0.30910000       1.02820000
H       -0.82830000      -0.44260000       0.51520000
H        2.84490000      -1.00520000      -1.36020000
H        2.88290000      -2.78260000       0.85880000
H        0.39830000      -3.97140000      -0.01230000
H       -0.88840000      -2.49060000      -2.65070000
H        0.47020000      -1.61790000      -3.38250000
H        0.64510000      -3.32820000      -2.92770000
