15
Properties=species:S:1:pos:R:3 pbc="F F F"
O       -0.00030000      -0.00610000       0.09440000
C       -0.00260000       1.19590000      -0.01300000
N       -1.10720000       2.03140000      -0.10420000
C       -0.62730000       3.42970000       0.02420000
C        0.61880000       3.31900000      -0.88480000
C        1.20880000       2.16940000      -0.02380000
C        1.14820000       2.82870000       1.36120000
C        0.05640000       3.59660000       1.39400000
H       -1.96740000       1.73280000       0.33070000
H       -1.39710000       4.14910000      -0.24940000
H        0.36780000       3.03140000      -1.90900000
H        1.24180000       4.21430000      -0.87260000
H        2.14570000       1.70230000      -0.31530000
H        1.84260000       2.61560000       2.16220000
H       -0.33870000       4.16530000       2.22490000
