20
Properties=species:S:1:pos:R:3 pbc="F F F"
C       -0.17400000       0.98470000      -1.90870000
C       -0.01080000      -0.17130000      -0.94240000
C        1.32320000      -0.58970000      -0.36410000
C        2.62690000       0.11010000      -0.68760000
C        0.26420000       0.01740000       0.54100000
C        0.42040000       1.36430000       1.15980000
C       -0.48600000       1.83420000       2.21700000
O        0.83040000       1.38380000       2.53620000
H        0.51880000       1.80650000      -1.71390000
H       -0.00190000       0.65230000      -2.93840000
H       -1.18890000       1.39460000      -1.85990000
H       -0.68700000      -0.99430000      -1.16170000
H        1.44490000      -1.66300000      -0.23920000
H        2.51180000       1.18810000      -0.82240000
H        3.35580000      -0.04030000       0.11580000
H        3.06130000      -0.28850000      -1.61100000
H       -0.23730000      -0.67800000       1.20920000
H        0.90830000       2.12880000       0.55760000
H       -0.66450000       2.90100000       2.34980000
H       -1.29610000       1.18650000       2.55170000
