14
Properties=species:S:1:pos:R:3 pbc="F F F"
C       -0.04970000       1.51140000       0.02530000
C       -0.01420000       0.05800000       0.02410000
C        0.01470000      -1.14510000       0.01850000
C        0.08080000      -2.57710000      -0.01110000
C       -0.54920000      -3.40010000       1.05910000
O       -1.15370000      -3.30970000      -0.21190000
C        1.23500000      -3.23140000      -0.72860000
O        2.21410000      -2.66210000      -1.12360000
H        0.82570000       1.92290000      -0.48810000
H       -0.94340000       1.88180000      -0.48830000
H       -0.05990000       1.90970000       1.04550000
H       -0.12090000      -4.36920000       1.31600000
H       -1.04620000      -2.86790000       1.86760000
H        1.07700000      -4.32520000      -0.85710000
