23
Properties=species:S:1:pos:R:3 pbc="F F F"
C       -0.01050000       1.47030000       0.01160000
C        0.00810000      -0.03370000      -0.00120000
C        0.63610000      -0.97460000      -1.07980000
C        0.01820000      -1.94040000      -0.01740000
C        0.01550000      -3.44450000      -0.03030000
C        0.62570000      -0.99300000       1.06720000
C       -1.20130000      -0.99340000      -0.01520000
C       -2.48050000      -1.00670000       0.74440000
C       -2.47310000      -0.99360000      -0.78730000
H        1.00660000       1.87690000       0.02000000
H       -0.52080000       1.86670000      -0.87360000
H       -0.52930000       1.85150000       0.89860000
H        0.16700000      -0.96870000      -2.06770000
H        1.72890000      -0.96820000      -1.15000000
H        1.03680000      -3.84040000      -0.02880000
H       -0.49910000      -3.84630000       0.84990000
H       -0.49050000      -3.83110000      -0.92230000
H        1.71780000      -0.98790000       1.14800000
H        0.14710000      -1.00390000       2.05050000
H       -2.79300000      -1.92310000       1.23680000
H       -2.80260000      -0.10220000       1.25240000
H       -2.79030000      -0.08040000      -1.28280000
H       -2.78070000      -1.90140000      -1.29840000
