23
Properties=species:S:1:pos:R:3 pbc="F F F"
C       -1.33270000       0.17050000       0.62200000
C       -0.78920000      -1.23770000       0.70190000
C        0.48920000      -1.58940000      -0.04020000
C        0.48760000      -1.54440000       1.45530000
O        1.22350000      -0.50390000       2.03900000
C        1.21170000      -0.47710000       3.44760000
C        2.18890000      -1.44340000       4.08170000
C        1.03050000       0.88960000       4.03630000
C       -0.08160000      -0.13670000       4.14430000
H       -0.52420000       0.90070000       0.70950000
H       -1.84690000       0.34250000      -0.32990000
H       -2.05170000       0.36940000       1.42530000
H       -1.54560000      -2.01840000       0.73670000
H        0.57800000      -2.54780000      -0.53970000
H        1.00110000      -0.77110000      -0.53650000
H        0.54120000      -2.48830000       1.99310000
H        3.20160000      -1.25400000       3.71140000
H        2.19230000      -1.33400000       5.17000000
H        1.93460000      -2.48450000       3.85430000
H        1.59250000       1.14680000       4.92760000
H        0.88780000       1.70410000       3.33600000
H       -0.95980000       0.01450000       3.52900000
H       -0.27910000      -0.58860000       5.11080000
