15
Properties=species:S:1:pos:R:3 pbc="F F F"
O       -0.05760000      -0.02510000       0.12960000
C        0.02820000       1.16670000      -0.04990000
C        1.31830000       1.90740000      -0.03730000
C        2.63610000       1.19480000       0.20710000
O        3.57560000       2.29450000       0.12790000
C        2.75590000       3.39520000      -0.12770000
C        1.59200000       3.03730000      -1.10240000
O        0.69100000       3.96820000      -0.42490000
C        1.41490000       3.31580000       0.66490000
H       -0.86350000       1.79820000      -0.23880000
H        2.69510000       0.72250000       1.19250000
H        2.87040000       0.44690000      -0.55670000
H        3.31030000       4.32660000      -0.21890000
H        1.55140000       2.97060000      -2.18910000
H        1.16260000       3.58190000       1.69090000
