20
Properties=species:S:1:pos:R:3 pbc="F F F"
C        0.54330000       1.01170000       1.07120000
C        0.17530000      -0.37110000       0.62110000
C       -0.64140000      -1.30940000       1.42410000
N        0.79840000      -1.59740000       1.23870000
C        1.06130000      -2.10110000      -0.16270000
C       -0.04530000      -2.19080000      -1.18660000
C       -1.47270000      -2.72650000      -1.14960000
O       -1.75230000      -3.18470000      -2.46820000
C        0.50640000      -0.84420000      -0.81380000
H        1.54740000       1.28070000       0.72500000
H       -0.16080000       1.75100000       0.67070000
H        0.53110000       1.08080000       2.16240000
H       -0.85540000      -1.00170000       2.44510000
H       -1.39360000      -1.96070000       1.00390000
H        2.00880000      -2.60560000      -0.30790000
H        0.40530000      -2.51900000      -2.12350000
H       -1.56210000      -3.55160000      -0.42530000
H       -2.18160000      -1.93920000      -0.85640000
H       -2.65330000      -3.52130000      -2.48220000
H        0.97400000      -0.17850000      -1.52880000
