21
Properties=species:S:1:pos:R:3 pbc="F F F"
C       -0.10090000       1.60290000      -0.10300000
C       -0.00440000       0.07320000      -0.02640000
C        0.81210000      -0.49420000      -1.20170000
O        2.18760000      -0.14800000      -1.07780000
C        2.71820000      -0.62870000       0.12480000
O        2.06420000      -0.09920000       1.25040000
C        0.67100000      -0.44220000       1.26040000
C        0.12530000       0.08780000       2.57980000
O        0.78430000      -0.51280000       3.67720000
H        0.88690000       2.05780000       0.00160000
H       -0.51380000       1.91050000      -1.06930000
H       -0.75130000       2.00910000       0.67640000
H       -1.01220000      -0.36010000      -0.07680000
H        0.70750000      -1.59160000      -1.23960000
H        0.47620000      -0.08460000      -2.15820000
H        2.65690000      -1.73410000       0.14850000
H        3.75950000      -0.30400000       0.17330000
H        0.58870000      -1.54280000       1.28350000
H        0.22250000       1.18290000       2.60680000
H       -0.93800000      -0.16050000       2.66520000
H        1.72750000      -0.40620000       3.50510000
