19
Properties=species:S:1:pos:R:3 pbc="F F F"
C       -0.14880000       1.46220000      -0.04790000
N       -0.02420000      -0.00160000      -0.05880000
C        0.74280000      -0.50320000      -1.15860000
C        0.12410000      -0.34040000      -2.58620000
C        0.33070000      -1.86370000      -2.85780000
C        0.98570000      -2.01320000      -1.47470000
O        2.42690000      -1.76450000      -1.52880000
C        2.26650000      -0.43330000      -1.18210000
N        3.12100000       0.45210000      -0.93500000
H        0.81570000       1.98780000      -0.02640000
H       -0.69540000       1.78590000      -0.93920000
H       -0.73520000       1.75880000       0.82600000
H        0.40650000      -0.29900000       0.81200000
H       -0.92950000      -0.06350000      -2.52300000
H        0.64050000       0.35490000      -3.24930000
H       -0.60820000      -2.41390000      -2.95090000
H        0.98510000      -2.13300000      -3.68870000
H        0.74890000      -2.84760000      -0.81520000
H        4.07310000       0.09160000      -1.02570000
