20
Properties=species:S:1:pos:R:3 pbc="F F F"
C       -0.09460000       1.52660000       0.04550000
C       -0.08760000       0.00610000      -0.12940000
C        0.91490000      -0.47130000      -1.18780000
C        0.90850000      -1.97830000      -1.36050000
O       -0.38330000      -2.52000000      -1.79000000
C        0.26100000      -3.25780000      -2.83030000
C        0.87740000      -2.33960000      -3.83500000
C        1.61190000      -2.64900000      -2.54320000
H        0.88970000       1.89640000       0.35450000
H       -0.35700000       2.03180000      -0.89090000
H       -0.81980000       1.83690000       0.80420000
H        0.14380000      -0.47350000       0.83110000
H       -1.08660000      -0.34330000      -0.41330000
H        0.69570000       0.01000000      -2.14830000
H        1.93270000      -0.16650000      -0.90630000
H        1.18840000      -2.46770000      -0.41700000
H       -0.06590000      -4.27530000      -3.01000000
H        1.30410000      -2.82140000      -4.70960000
H        0.43220000      -1.36630000      -4.01830000
H        2.59680000      -3.09500000      -2.51910000
