11
Properties=species:S:1:pos:R:3 pbc="F F F"
C        0.04180000       1.39590000      -0.12630000
O        1.44190000       1.80510000       0.03550000
C        1.96610000       0.70080000       0.59420000
C        1.14570000      -0.36370000       0.59250000
O       -0.04760000      -0.03540000      -0.02480000
C        1.92470000      -1.38720000       1.15010000
N        3.13310000      -0.93450000       1.47220000
O        3.15380000       0.45590000       1.09450000
H       -0.53430000       1.86420000       0.68270000
H       -0.30030000       1.71650000      -1.11090000
H        1.70280000      -2.42490000       1.34960000
