20
Properties=species:S:1:pos:R:3 pbc="F F F"
C       -0.50650000       1.34090000      -0.00720000
C        0.20890000       0.00930000       0.00370000
O        1.50670000       0.05510000      -0.64380000
C        2.08800000      -0.78110000       0.37130000
C        0.85680000      -0.56910000       1.28830000
C        1.06530000       0.39520000       2.44560000
O        0.15610000      -1.73660000       1.71900000
C        0.83680000      -2.63270000       2.46030000
N        0.23590000      -3.62290000       2.96220000
H        0.09210000       2.12810000       0.45770000
H       -0.71080000       1.63610000      -1.04100000
H       -1.46420000       1.26390000       0.51760000
H       -0.42010000      -0.76660000      -0.45470000
H        2.20620000      -1.82050000       0.03640000
H        3.05080000      -0.39470000       0.72360000
H        1.56190000       1.30720000       2.10420000
H        0.10750000       0.66340000       2.90020000
H        1.69380000      -0.05950000       3.21810000
H        1.90930000      -2.41320000       2.54990000
H        0.89680000      -4.21010000       3.46690000
