21
Properties=species:S:1:pos:R:3 pbc="F F F"
O       -0.20680000       1.47380000      -0.10060000
C       -0.02670000       0.06720000      -0.16290000
C       -1.36410000      -0.58380000       0.19790000
C       -1.33010000      -2.08240000       0.15740000
C       -1.54560000      -2.91540000       1.18300000
C       -1.54380000      -4.34670000       0.76930000
C       -2.63820000      -4.73120000      -0.20870000
C       -1.28550000      -4.32000000      -0.72940000
C       -1.07120000      -2.86120000      -1.12770000
H        0.63080000       1.89400000      -0.31560000
H        0.28720000      -0.24820000      -1.17040000
H        0.74750000      -0.27220000       0.54330000
H       -1.65590000      -0.23910000       1.19540000
H       -2.11700000      -0.19750000      -0.50290000
H       -1.75340000      -2.59810000       2.19970000
H       -1.12930000      -5.10770000       1.42160000
H       -2.89330000      -5.78310000      -0.29030000
H       -3.47730000      -4.05120000      -0.31980000
H       -0.67520000      -5.08170000      -1.19980000
H       -1.74100000      -2.54080000      -1.93740000
H       -0.04930000      -2.69770000      -1.49660000
