17
Properties=species:S:1:pos:R:3 pbc="F F F"
N       -0.09090000       1.26550000       0.26180000
C       -0.02840000       0.03390000      -0.02760000
O        1.16910000      -0.61150000      -0.17180000
C        1.30630000      -1.75140000      -0.99430000
C        1.17560000      -3.12410000      -0.40790000
C        0.10600000      -2.58660000      -1.33920000
C       -1.21350000      -2.12110000      -0.79020000
N       -1.31940000      -2.00480000       0.66420000
C       -1.27030000      -0.77140000      -0.15830000
H        0.85080000       1.66150000       0.30390000
H        2.06340000      -1.57510000      -1.75180000
H        1.83990000      -3.90010000      -0.77090000
H        0.90080000      -3.18030000       0.63840000
H        0.06060000      -2.97920000      -2.34940000
H       -2.09090000      -2.44340000      -1.34370000
H       -2.27470000      -2.16790000       0.96940000
H       -2.16520000      -0.16680000      -0.24470000
