14
Properties=species:S:1:pos:R:3 pbc="F F F"
N       -0.07800000       1.27520000      -0.06300000
C       -0.02780000       0.02170000      -0.01130000
O        1.10670000      -0.76430000       0.02160000
C        0.64050000      -2.14560000       0.03970000
C       -0.61160000      -2.08810000      -0.84480000
C       -1.18340000      -0.95920000       0.03170000
O       -1.14770000      -1.55300000       1.36500000
C       -0.01640000      -2.32910000       1.41780000
O        0.31600000      -2.96440000       2.36870000
H        0.85830000       1.68420000      -0.07440000
H        1.46630000      -2.81100000      -0.18910000
H       -0.39710000      -1.78760000      -1.87190000
H       -1.21780000      -2.99530000      -0.81920000
H       -2.17100000      -0.55240000      -0.15530000
