21
Properties=species:S:1:pos:R:3 pbc="F F F"
C        0.02040000       1.53150000      -0.00390000
C       -0.00190000       0.00290000       0.02870000
O        0.59020000      -0.48600000       1.23480000
C       -1.41330000      -0.57600000      -0.00560000
C       -2.18860000      -0.34620000      -1.34520000
C       -2.39990000      -1.83040000      -1.71150000
C       -2.88890000      -2.47260000      -0.39540000
C       -1.42640000      -2.12440000      -0.04780000
O       -1.07750000      -2.39630000      -1.44620000
H        1.05100000       1.90390000       0.02690000
H       -0.44290000       1.92210000      -0.91520000
H       -0.51340000       1.93810000       0.86130000
H        0.54080000      -0.39210000      -0.84410000
H        1.49910000      -0.17210000       1.26790000
H       -1.96340000      -0.20250000       0.86490000
H       -3.12340000       0.20670000      -1.22160000
H       -1.58330000       0.15970000      -2.10200000
H       -2.80390000      -2.08010000      -2.69280000
H       -3.70120000      -1.99980000       0.16380000
H       -3.04060000      -3.54760000      -0.49610000
H       -0.82200000      -2.66220000       0.67900000
