17
Properties=species:S:1:pos:R:3 pbc="F F F"
C        0.01430000       1.25740000      -0.30710000
O       -0.07950000      -0.12670000       0.06200000
C       -1.31520000      -0.64160000       0.06640000
O       -2.31440000      -0.02100000      -0.20840000
C       -1.29370000      -2.09960000       0.48030000
N       -2.63890000      -2.62580000       0.48510000
C       -2.85790000      -3.89640000      -0.01050000
N       -4.19900000      -4.19780000      -0.19560000
O       -1.96040000      -4.67510000      -0.27520000
H        1.07380000       1.50550000      -0.25330000
H       -0.36460000       1.41020000      -1.32050000
H       -0.56150000       1.87830000       0.38340000
H       -0.66640000      -2.67730000      -0.20680000
H       -0.81480000      -2.16650000       1.46620000
H       -3.34390000      -1.92070000       0.31320000
H       -4.86900000      -3.74310000       0.40590000
H       -4.36250000      -5.18380000      -0.32940000
