21
Properties=species:S:1:pos:R:3 pbc="F F F"
C        0.11010000       1.22070000      -0.44450000
C        1.50410000       1.59100000       0.13560000
C        1.51290000       0.24840000       0.92330000
C       -0.00840000       0.10060000       0.62690000
C        2.35980000      -0.82220000       0.27240000
O        3.74220000      -0.50360000       0.37960000
C        4.45580000      -1.70840000       0.63840000
C        3.36200000      -2.79290000       0.64630000
O        2.18440000      -2.05680000       0.92950000
H       -0.65510000       2.00030000      -0.43500000
H        0.17350000       0.82130000      -1.46050000
H        2.32220000       1.74650000      -0.57160000
H        1.46230000       2.45240000       0.80650000
H        1.80300000       0.30260000       1.97530000
H       -0.61790000       0.40210000       1.48210000
H       -0.34690000      -0.88390000       0.29480000
H        2.10490000      -0.93550000      -0.80050000
H        5.21060000      -1.88150000      -0.13770000
H        4.96200000      -1.62670000       1.60790000
H        3.28830000      -3.28950000      -0.33350000
H        3.49520000      -3.55230000       1.41960000
