19
Properties=species:S:1:pos:R:3 pbc="F F F"
C       -0.23660000       1.60040000      -0.23560000
C       -0.03170000       0.11500000      -0.02630000
O        0.94980000      -0.51140000      -0.96950000
C        1.83920000      -0.70850000       0.15250000
C        2.52200000      -1.76890000       1.09750000
C        2.03740000      -0.63250000       2.13340000
O        2.87890000       0.45960000       1.83720000
C        2.81440000       0.47290000       0.39830000
C        0.76440000      -0.55790000       1.17080000
H        0.64980000       2.20120000      -0.03260000
H       -0.54960000       1.78590000      -1.26810000
H       -1.03720000       1.94460000       0.42820000
H       -0.99060000      -0.39790000      -0.14860000
H        1.98960000      -2.71370000       1.18830000
H        3.60490000      -1.91500000       1.04350000
H        1.97610000      -0.79880000       3.20800000
H        3.80530000       0.28840000      -0.03290000
H        2.45290000       1.43970000       0.04600000
H        0.26430000      -1.51860000       1.30970000
