21
Properties=species:S:1:pos:R:3 pbc="F F F"
C       -0.02740000       1.53630000       0.06680000
C        0.05330000       0.01080000      -0.05600000
C        0.76220000      -0.45970000      -1.29950000
C        0.33460000      -0.24870000      -2.78850000
C        1.64930000      -1.08150000      -2.83380000
O        2.29000000      -1.64120000      -3.92560000
C        2.22770000      -0.12760000      -1.74560000
C        1.04840000      -1.93570000      -1.69420000
O        1.89960000      -2.64350000      -0.82890000
H        0.97150000       1.98420000       0.08970000
H       -0.57000000       1.97560000      -0.77690000
H       -0.54550000       1.82870000       0.98520000
H        0.57250000      -0.40440000       0.81680000
H       -0.95850000      -0.41550000      -0.04260000
H       -0.58240000      -0.74760000      -3.11640000
H        0.39640000       0.77530000      -3.16460000
H        2.65950000      -0.93260000      -4.46300000
H        2.41580000       0.90460000      -2.05530000
H        3.02470000      -0.52760000      -1.12010000
H        0.16510000      -2.53030000      -1.96780000
H        2.30050000      -3.36020000      -1.33140000
