20
Properties=species:S:1:pos:R:3 pbc="F F F"
C        0.08460000       1.54240000      -0.08880000
C        0.02030000       0.04730000      -0.07420000
C       -1.06210000      -0.73000000       0.05760000
C       -2.49610000      -0.34570000       0.23920000
C       -0.67480000      -2.21070000       0.06290000
C        0.80170000      -2.20340000      -0.42920000
C        1.29480000      -0.76460000      -0.17310000
C       -0.82950000      -2.78860000       1.40500000
N       -0.95550000      -3.22870000       2.46710000
H        0.72460000       1.90950000       0.72370000
H        0.53140000       1.90510000      -1.02310000
H       -0.89660000       2.00910000       0.01960000
H       -2.63710000       0.73700000       0.25350000
H       -3.12050000      -0.75560000      -0.56530000
H       -2.89110000      -0.74990000       1.17960000
H       -1.31500000      -2.79830000      -0.60730000
H        1.40950000      -2.96750000       0.05830000
H        0.80250000      -2.41240000      -1.50220000
H        1.95780000      -0.40770000      -0.96990000
H        1.86920000      -0.68720000       0.76080000
