18
Properties=species:S:1:pos:R:3 pbc="F F F"
O        0.02350000       1.28740000      -0.47080000
C        0.02660000      -0.03180000       0.06920000
C       -1.37830000      -0.53390000       0.12300000
C       -2.10070000      -1.03200000      -1.11530000
C       -1.91220000      -1.96210000       0.04790000
O       -1.17040000      -3.12890000      -0.04500000
C       -2.93500000      -1.67730000       1.15230000
C       -2.42230000      -0.19690000       1.19710000
H        0.92300000       1.62610000      -0.42670000
H        0.63100000      -0.71630000      -0.54720000
H        0.45950000      -0.03720000       1.08280000
H       -3.08060000      -0.64050000      -1.38120000
H       -1.44620000      -1.23170000      -1.95840000
H       -1.59600000      -3.70960000      -0.68500000
H       -3.98910000      -1.84070000       0.90280000
H       -2.69850000      -2.21960000       2.07060000
H       -1.97720000       0.06340000       2.16070000
H       -3.14750000       0.57550000       0.92490000
