21
Properties=species:S:1:pos:R:3 pbc="F F F"
C        0.19490000       1.59350000      -0.22220000
C        0.10280000       0.14330000      -0.12610000
C        0.01960000      -1.05660000      -0.04610000
C       -0.05700000      -2.50610000       0.03690000
C        0.25230000      -3.24340000       1.39540000
C       -1.08150000      -3.99030000       1.27620000
C       -2.25010000      -3.04270000       1.24000000
C       -2.39810000      -1.78070000       2.06420000
C       -1.42620000      -3.22040000      -0.00790000
H        0.96000000       1.99000000       0.45490000
H        0.45830000       1.91080000      -1.23760000
H       -0.75550000       2.07300000       0.03760000
H        0.58570000      -2.93730000      -0.73790000
H        1.12630000      -3.89210000       1.31280000
H        0.37490000      -2.60320000       2.27280000
H       -1.20890000      -5.04640000       1.48270000
H       -3.18710000      -3.59140000       1.14810000
H       -1.46660000      -1.21810000       2.14440000
H       -3.14030000      -1.11210000       1.61470000
H       -2.73800000      -2.02400000       3.07750000
H       -1.86860000      -3.58690000      -0.92730000
