18
Properties=species:S:1:pos:R:3 pbc="F F F"
C       -0.24730000       1.45790000      -0.05580000
C       -0.08700000      -0.03410000       0.02310000
N       -0.04400000      -0.71740000       1.10110000
O       -0.15190000       0.08240000       2.24540000
C        0.10030000      -0.79810000      -1.27260000
C       -0.01490000      -2.33930000      -1.17940000
O       -0.78240000      -2.68540000      -2.32710000
C       -1.65580000      -1.60500000      -2.49630000
O       -0.90730000      -0.43410000      -2.22850000
H        0.72650000       1.95230000       0.04720000
H       -0.67700000       1.73810000      -1.01850000
H       -0.88130000       1.81800000       0.75600000
H       -0.14450000      -0.57200000       2.95210000
H        1.06560000      -0.50040000      -1.70590000
H        0.94780000      -2.84830000      -1.24300000
H       -0.52240000      -2.63410000      -0.25470000
H       -2.00550000      -1.57900000      -3.53210000
H       -2.51410000      -1.67710000      -1.80300000
