17
Properties=species:S:1:pos:R:3 pbc="F F F"
O       -0.07370000      -0.04010000      -0.45810000
C       -0.05270000       1.11450000      -0.10710000
C       -1.33680000       1.92930000       0.03130000
N       -1.41000000       2.71020000       1.25850000
C       -0.47460000       3.82840000       1.36680000
C        0.83690000       3.40030000       2.03290000
O        1.23810000       3.90520000       3.06270000
N        1.51460000       2.38520000       1.41420000
C        1.28390000       1.84920000       0.08190000
H       -1.39450000       2.55680000      -0.88460000
H       -2.16830000       1.22240000       0.00090000
H       -2.35680000       3.04430000       1.38160000
H       -0.26270000       4.30720000       0.39140000
H       -0.89510000       4.58940000       2.02460000
H        2.35440000       2.09780000       1.89340000
H        2.06850000       1.12340000      -0.13330000
H        1.34480000       2.64170000      -0.68080000
