12
Properties=species:S:1:pos:R:3 pbc="F F F"
O        0.11400000       1.36260000       0.02290000
C        0.07810000       0.02460000      -0.01650000
C        0.02310000      -0.76460000      -1.16080000
N        0.00470000      -2.06180000      -0.65700000
C        0.04690000      -1.98430000       0.68220000
N        0.09250000      -0.72740000       1.11100000
C       -0.01260000      -0.50290000      -2.57300000
O       -0.06120000      -1.38590000      -3.41390000
H        0.14860000       1.61220000       0.95600000
H       -0.03420000      -2.87780000      -1.24750000
H        0.04340000      -2.85490000       1.32060000
H        0.00660000       0.56980000      -2.84970000
