16
Properties=species:S:1:pos:R:3 pbc="F F F"
C       -0.00220000       1.57370000       0.01210000
C        0.02590000       0.06780000      -0.07160000
O       -1.11630000      -0.58950000       0.38940000
C        0.62280000      -0.73160000      -1.20190000
C        1.92080000      -0.10930000      -1.69390000
O        2.45390000      -0.03580000      -0.33690000
C        1.31080000      -0.72380000       0.16660000
C        1.45230000      -1.71090000       1.18470000
N        1.54120000      -2.48760000       2.03840000
H        0.96260000       2.00820000      -0.25520000
H       -0.77660000       1.97750000      -0.64680000
H       -0.23220000       1.88400000       1.03750000
H       -1.18140000      -0.46090000       1.34350000
H        0.06260000      -1.52770000      -1.67180000
H        2.52630000      -0.78970000      -2.30040000
H        1.86770000       0.87440000      -2.17070000
