20
Properties=species:S:1:pos:R:3 pbc="F F F"
C       -0.07760000       1.56110000      -0.12280000
C        0.08290000       0.04350000      -0.03820000
C        0.91300000      -0.57400000      -1.19980000
C        2.38310000      -0.31810000      -0.71550000
C        1.94670000      -1.23800000       0.47700000
N        0.85280000      -0.50400000       1.13790000
C        1.27810000       0.41470000       2.17950000
C        1.15080000      -1.98070000      -0.61910000
O        0.95610000      -3.10860000      -0.95500000
H        0.87740000       2.08780000      -0.19850000
H       -0.66880000       1.80850000      -1.01020000
H       -0.61350000       1.95410000       0.74580000
H       -0.92270000      -0.39720000      -0.03170000
H        0.56960000      -0.39700000      -2.21720000
H        3.13350000      -0.76720000      -1.36900000
H        2.65320000       0.70900000      -0.46690000
H        2.64010000      -1.72560000       1.15890000
H        1.97430000       1.20730000       1.85420000
H        0.40550000       0.89610000       2.62980000
H        1.77420000      -0.15910000       2.96890000
