23
Properties=species:S:1:pos:R:3 pbc="F F F"
C        0.00280000       1.54260000       0.06650000
C        0.00230000       0.04130000      -0.00740000
C       -0.12290000      -0.63050000      -1.15260000
C       -0.06790000      -2.13720000      -1.27120000
C       -1.41590000      -2.69570000      -1.77010000
C        1.05750000      -2.54480000      -2.23260000
O        0.27960000      -2.75280000      -0.02390000
C       -0.30810000      -2.15990000       1.11810000
C        0.15510000      -0.71440000       1.29170000
H        0.92830000       1.91240000       0.52700000
H       -0.08920000       1.99820000      -0.92330000
H       -0.82160000       1.90950000       0.69170000
H       -0.25660000      -0.09290000      -2.08940000
H       -1.68240000      -2.26230000      -2.73950000
H       -1.35120000      -3.78220000      -1.88150000
H       -2.22400000      -2.46350000      -1.07090000
H        2.01570000      -2.15760000      -1.87740000
H        1.12190000      -3.63560000      -2.28720000
H        0.87140000      -2.15550000      -3.23810000
H       -1.40760000      -2.18790000       1.05850000
H       -0.00800000      -2.78150000       1.96700000
H        1.20270000      -0.68790000       1.62290000
H       -0.43040000      -0.22930000       2.08440000
