20
Properties=species:S:1:pos:R:3 pbc="F F F"
C       -0.11080000       1.63980000       0.17020000
C        0.01580000       0.12350000       0.12060000
C        1.15340000      -0.59910000      -0.67920000
C        2.15150000      -0.16550000       0.43340000
C        0.86150000      -0.66200000       1.16050000
O        0.57450000      -0.65660000       2.51510000
C        0.87940000      -1.88350000       0.17230000
C       -0.32770000      -2.78460000      -0.04040000
H        0.83940000       2.16130000       0.30420000
H       -0.56470000       2.01300000      -0.75450000
H       -0.76610000       1.93310000       0.99750000
H       -0.97600000      -0.30270000      -0.04510000
H        1.32600000      -0.55920000      -1.75310000
H        3.04370000      -0.78890000       0.54640000
H        2.40050000       0.89230000       0.50750000
H        1.25280000      -1.16430000       2.97360000
H        1.77830000      -2.50200000       0.28860000
H       -1.26300000      -2.24400000      -0.20080000
H       -0.17040000      -3.43560000      -0.90750000
H       -0.47120000      -3.43250000       0.83170000
