20
Properties=species:S:1:pos:R:3 pbc="F F F"
C       -0.12710000       2.07400000      -0.86580000
C       -0.05800000       0.63090000      -0.34020000
C       -1.44730000       0.01240000      -0.22730000
C       -1.74690000      -1.01780000       0.79800000
N       -2.31730000       0.33820000       0.90880000
C        0.76900000      -0.24260000      -1.27440000
O        0.56260000      -0.28850000      -2.46970000
C        1.87140000      -1.10190000      -0.67850000
O        2.49880000      -1.88180000      -1.64760000
H        0.86340000       2.53840000      -0.88330000
H       -0.52290000       2.08040000      -1.88430000
H       -0.78010000       2.68050000      -0.23240000
H        0.40580000       0.61610000       0.65570000
H       -1.97270000      -0.03910000      -1.17840000
H       -2.46700000      -1.80380000       0.59130000
H       -0.95200000      -1.30340000       1.48330000
H       -1.80050000       0.87330000       1.60380000
H        2.58600000      -0.42730000      -0.17390000
H        1.42780000      -1.72390000       0.11780000
H        2.05870000      -1.64740000      -2.48110000
