16
Properties=species:S:1:pos:R:3 pbc="F F F"
O        0.03260000       0.00590000       0.04250000
C       -0.00070000       1.20580000      -0.03860000
C       -1.26690000       2.06860000      -0.15990000
C       -0.81950000       3.37750000      -0.83890000
C        0.69620000       3.47270000      -0.58920000
C        1.15900000       3.30910000       0.83390000
C        1.19580000       2.11070000      -0.09190000
C        1.48620000       4.26090000      -1.49180000
N        2.10790000       4.90290000      -2.22640000
H       -2.03150000       1.52630000      -0.71810000
H       -1.67040000       2.23940000       0.84490000
H       -0.99460000       3.32620000      -1.91700000
H       -1.34170000       4.26120000      -0.46280000
H        2.12040000       3.73490000       1.09430000
H        0.41590000       3.35040000       1.62310000
H        2.15250000       1.69740000      -0.38270000
