19
Properties=species:S:1:pos:R:3 pbc="F F F"
C       -0.04450000       1.53680000      -0.06060000
C        0.05970000       0.01900000      -0.07970000
C       -1.14940000      -0.65780000       0.55320000
C        0.69170000      -0.75070000      -1.18760000
C        1.37110000      -0.70480000       0.23430000
C        2.54390000      -0.07710000      -0.42680000
O        3.71180000       0.00500000      -0.14880000
C        1.86180000       0.00530000      -1.82780000
O        2.58040000      -0.77870000      -2.75340000
H        0.84740000       2.03620000      -0.44280000
H       -0.90000000       1.86950000      -0.65940000
H       -0.20210000       1.88670000       0.96510000
H       -2.06390000      -0.37980000       0.01820000
H       -1.06300000      -1.74790000       0.52980000
H       -1.26590000      -0.34790000       1.59710000
H        0.23770000      -1.62190000      -1.64210000
H        1.42140000      -1.45330000       1.01680000
H        1.62710000       0.99300000      -2.24330000
H        3.51760000      -0.63860000      -2.56770000
