16
Properties=species:S:1:pos:R:3 pbc="F F F"
C       -0.02340000       1.46080000      -0.08700000
C       -0.01610000      -0.03650000      -0.01980000
N        0.92050000      -0.82560000      -0.98130000
C        0.07080000      -1.94570000      -0.54070000
C        0.56450000      -2.79680000       0.38750000
C        0.20650000      -2.16710000       1.71340000
O        0.52810000      -2.51250000       2.82190000
C       -0.40130000      -0.83220000       1.31310000
C       -1.06720000      -1.06950000      -0.03320000
H        0.95330000       1.86280000       0.19810000
H       -0.25530000       1.80800000      -1.10000000
H       -0.77630000       1.87190000       0.59100000
H        0.61270000      -0.47710000      -1.89520000
H        1.52830000      -3.28660000       0.30240000
H       -0.86920000      -0.21030000       2.07210000
H       -2.12980000      -1.07940000      -0.23970000
