20
Properties=species:S:1:pos:R:3 pbc="F F F"
C        0.21850000       1.50670000      -0.14360000
C       -0.03110000       0.01250000       0.12970000
C        0.67500000      -0.49220000       1.34490000
C        0.21980000      -1.01760000       2.49460000
C        1.50030000      -1.40440000       3.22580000
N        2.44350000      -0.25790000       2.96570000
C        2.19260000      -0.61750000       1.52570000
C        2.28660000      -2.11570000       2.04500000
O        3.55360000      -2.59710000       2.33240000
H        1.28560000       1.71470000      -0.27250000
H       -0.29700000       1.82700000      -1.05410000
H       -0.14340000       2.12080000       0.68690000
H       -1.10700000      -0.16880000       0.23270000
H        0.29690000      -0.56460000      -0.74640000
H       -0.79620000      -1.21820000       2.80610000
H        1.45920000      -1.81430000       4.23500000
H        2.03280000       0.64320000       3.21610000
H        2.87070000      -0.21670000       0.77100000
H        1.74620000      -2.87350000       1.47680000
H        3.98580000      -1.89120000       2.83550000
