18
Properties=species:S:1:pos:R:3 pbc="F F F"
C       -0.31690000       1.29640000      -0.87330000
C       -0.07480000       0.03410000      -0.07510000
C        1.08790000      -0.83710000      -0.42680000
N        1.09140000      -0.06650000       0.82830000
C       -1.29360000      -0.59240000       0.49560000
N       -2.49810000      -0.60790000      -0.03700000
C       -3.27730000      -1.31660000       0.84960000
C       -2.53420000      -1.72830000       1.92490000
N       -1.26360000      -1.25910000       1.68270000
H        0.61120000       1.65400000      -1.33060000
H       -1.04870000       1.10490000      -1.66200000
H       -0.72180000       2.08850000      -0.23500000
H        1.01550000      -1.91350000      -0.30250000
H        1.73280000      -0.51340000      -1.23970000
H        1.67620000       0.76000000       0.73640000
H       -4.32680000      -1.48740000       0.66320000
H       -2.77940000      -2.28810000       2.81190000
H       -0.44560000      -1.31040000       2.26890000
