21
Properties=species:S:1:pos:R:3 pbc="F F F"
C       -0.08760000       1.64610000      -0.16110000
C        0.02220000       0.13760000      -0.01970000
C        1.17590000      -0.63070000      -0.71760000
O        2.34510000       0.05320000      -0.23320000
C        2.20200000      -0.31240000       1.14970000
C        2.40380000      -1.84960000       1.08830000
C        2.39370000      -2.60010000       2.41510000
C        1.04270000      -1.77690000       0.37010000
C        0.62740000      -0.52590000       1.23070000
H        0.88750000       2.11860000      -0.02150000
H       -0.45950000       1.92390000      -1.15380000
H       -0.78150000       2.05970000       0.57900000
H       -0.93060000      -0.35820000      -0.24070000
H        1.23880000      -0.79820000      -1.79210000
H        2.77390000       0.35310000       1.79550000
H        3.26550000      -2.14550000       0.48060000
H        1.54700000      -2.31520000       3.04740000
H        2.33090000      -3.68100000       2.24970000
H        3.31250000      -2.40560000       2.97910000
H        0.39180000      -2.62660000       0.16890000
H        0.13970000      -0.56800000       2.20210000
