23
Properties=species:S:1:pos:R:3 pbc="F F F"
C       -0.13770000       1.51940000       0.07730000
C       -0.01420000       0.00510000       0.05210000
O       -1.31140000      -0.54000000      -0.13010000
C       -1.39430000      -1.92410000      -0.05210000
C       -1.12190000      -2.72870000       1.26610000
C       -2.03130000      -3.76870000       0.55280000
C       -2.80790000      -2.55470000      -0.03160000
C       -1.15800000      -4.19520000      -0.64660000
C       -0.66510000      -2.78790000      -1.11230000
H        0.84570000       1.98120000       0.20820000
H       -0.57060000       1.88320000      -0.85890000
H       -0.78510000       1.83800000       0.89920000
H        0.65610000      -0.31010000      -0.76200000
H        0.42170000      -0.36220000       0.99440000
H       -0.09540000      -3.02170000       1.50630000
H       -1.60360000      -2.26550000       2.13000000
H       -2.53900000      -4.55500000       1.10950000
H       -3.45500000      -2.06920000       0.70170000
H       -3.33050000      -2.67840000      -0.98460000
H       -0.33500000      -4.85150000      -0.34850000
H       -1.73750000      -4.71230000      -1.41690000
H       -0.98520000      -2.53120000      -2.12610000
H        0.42240000      -2.68700000      -1.06360000
