21
Properties=species:S:1:pos:R:3 pbc="F F F"
C       -0.03530000       1.53100000       0.03280000
C       -0.05240000       0.01070000      -0.08750000
N        0.85190000      -0.43860000      -1.13290000
C        0.89240000      -1.81340000      -1.40450000
C        0.39630000      -2.84110000      -0.62900000
N        0.72390000      -4.02920000      -1.26190000
C        1.40200000      -3.77880000      -2.42430000
C        1.87580000      -4.87550000      -3.32040000
C        1.52440000      -2.41080000      -2.53830000
H        0.97700000       1.89250000       0.23610000
H       -0.38420000       2.00400000      -0.89300000
H       -0.69310000       1.86350000       0.84090000
H        0.28040000      -0.43620000       0.85850000
H       -1.08640000      -0.34480000      -0.25040000
H        0.75070000       0.10850000      -1.97850000
H       -0.14410000      -2.83590000       0.30180000
H        0.48890000      -4.94320000      -0.91910000
H        1.04850000      -5.48770000      -3.70180000
H        2.39610000      -4.45230000      -4.18270000
H        2.57450000      -5.55300000      -2.81330000
H        2.02150000      -1.88810000      -3.34230000
