15
Properties=species:S:1:pos:R:3 pbc="F F F"
O        0.75280000       0.50630000      -0.84860000
C        0.01470000      -0.31670000       0.00040000
C        0.14530000      -0.15150000       1.53850000
C       -1.39820000      -0.45980000       1.66010000
C       -1.52000000      -0.11750000       0.12380000
C       -1.65790000      -1.87300000       1.93180000
N       -1.83670000      -2.99930000       2.11570000
C       -2.15330000       0.39510000       2.56950000
N       -2.72770000       1.11890000       3.26290000
H        0.57990000       1.42710000      -0.62270000
H        0.24820000      -1.34170000      -0.29910000
H        0.81950000      -0.80730000       2.08850000
H        0.33090000       0.88880000       1.81790000
H       -1.80090000       0.93230000       0.00690000
H       -2.18700000      -0.74600000      -0.46560000
