20
Properties=species:S:1:pos:R:3 pbc="F F F"
C        0.14830000       1.64470000       0.00450000
C       -0.12200000       0.14200000      -0.01170000
N        0.62410000      -0.51690000      -1.07710000
C        2.09470000      -0.71470000      -0.91600000
C        1.93900000      -2.20850000      -1.20930000
C        1.00900000      -2.84360000      -0.23080000
C        0.41570000      -1.94460000      -1.29600000
C       -0.50050000      -2.44110000      -2.33800000
O       -0.68970000      -3.60980000      -2.58560000
H        1.20480000       1.85430000       0.20370000
H       -0.10750000       2.09140000      -0.96050000
H       -0.43980000       2.13470000       0.78620000
H        0.09960000      -0.28410000       0.98420000
H       -1.18600000      -0.04380000      -0.20160000
H        2.67040000      -0.15720000      -1.66040000
H        2.48370000      -0.48240000       0.08500000
H        2.51920000      -2.77880000      -1.92220000
H        0.80440000      -3.89570000      -0.39640000
H        0.99800000      -2.52130000       0.80640000
H       -0.99710000      -1.62800000      -2.91290000
