18
Properties=species:S:1:pos:R:3 pbc="F F F"
C       -0.22520000       1.55260000      -0.03290000
N        0.17120000       0.14930000       0.08460000
C        1.38900000      -0.50650000      -0.29200000
C        2.70780000       0.17410000       0.22530000
N        2.35980000       1.44900000       0.89880000
C        2.19750000       0.15610000       1.60780000
C        0.86420000      -0.54680000       1.12460000
C        0.20560000      -1.63040000       1.92580000
H        0.41290000       2.09110000      -0.73600000
H       -1.26110000       1.59030000      -0.39420000
H       -0.16760000       2.06960000       0.92710000
H        1.38110000      -1.26790000      -1.06680000
H        3.70480000      -0.02110000      -0.14720000
H        3.23400000       1.85890000       1.22850000
H        2.71550000      -0.05430000       2.53480000
H       -0.31950000      -1.21390000       2.79460000
H       -0.52470000      -2.16240000       1.31100000
H        0.94260000      -2.35050000       2.29930000
