21
Properties=species:S:1:pos:R:3 pbc="F F F"
C       -0.24630000       1.45700000      -0.03970000
C       -0.02340000      -0.05020000      -0.04760000
C        1.20890000      -0.51960000      -0.88470000
C        1.20200000      -2.06760000      -0.75670000
C        1.52440000      -1.83320000       0.71530000
C        2.09230000      -0.44630000       0.43800000
C        3.39680000       0.18880000       0.78680000
C        0.77620000      -0.55440000       1.15310000
O        0.56610000      -0.25400000       2.48600000
H        0.69270000       1.99350000       0.13450000
H       -0.66180000       1.79930000      -0.99360000
H       -0.94120000       1.74560000       0.75550000
H       -0.96290000      -0.57420000      -0.27460000
H        1.43840000      -0.02690000      -1.82860000
H        0.27460000      -2.58860000      -1.02440000
H        2.04270000      -2.52800000      -1.28450000
H        1.87070000      -2.53680000       1.46370000
H        4.22510000      -0.23440000       0.20660000
H        3.38290000       1.26990000       0.60640000
H        3.61840000       0.03500000       1.84820000
H       -0.05820000      -0.89260000       2.84830000
