18
Properties=species:S:1:pos:R:3 pbc="F F F"
N        0.59430000       0.33050000      -0.76520000
C       -0.10600000       0.02030000       0.36980000
O        0.10620000       0.55500000       1.44190000
C       -1.23830000      -0.99050000       0.17770000
C       -2.41250000      -0.46110000      -0.69580000
C       -2.92380000      -1.70520000      -1.37370000
C       -2.11210000      -2.74720000      -1.21370000
C       -0.87450000      -2.38940000      -0.43210000
O        0.23390000      -2.39890000      -1.35080000
H        1.39660000       0.92950000      -0.64730000
H        0.59250000      -0.33580000      -1.52440000
H       -1.62010000      -1.17440000       1.18380000
H       -3.17200000       0.03210000      -0.07990000
H       -2.08220000       0.28190000      -1.43220000
H       -3.84830000      -1.71670000      -1.94120000
H       -2.24660000      -3.73510000      -1.63770000
H       -0.65970000      -3.10480000       0.37160000
H        1.04090000      -2.51350000      -0.83770000
