14
Properties=species:S:1:pos:R:3 pbc="F F F"
N        0.12420000       1.18460000       0.07940000
C       -0.04770000      -0.07110000       0.09880000
N       -1.30960000      -0.66510000      -0.00290000
C       -1.42460000      -2.11500000       0.06570000
C       -1.26450000      -2.64870000       1.48360000
O       -0.75410000      -3.70440000       1.74330000
C       -2.46190000       0.09340000      -0.18920000
O       -3.56410000      -0.39330000      -0.28620000
H        1.11260000       1.41210000       0.15490000
H        0.74460000      -0.82260000       0.19100000
H       -2.43740000      -2.36130000      -0.27280000
H       -0.70380000      -2.60760000      -0.59260000
H       -1.67440000      -1.97660000       2.27090000
H       -2.24330000       1.16750000      -0.23870000
