22
Properties=species:S:1:pos:R:3 pbc="F F F"
C       -0.10500000       1.50030000       0.18540000
C       -0.28780000       0.01210000       0.48860000
C       -1.31100000      -0.66220000      -0.43050000
C       -1.35940000      -2.17640000      -0.22930000
O       -0.37800000      -2.83400000       0.06180000
N       -2.59540000      -2.74200000      -0.41020000
C       -2.78950000      -4.16120000      -0.41760000
C       -2.83980000      -4.89680000       0.89340000
C       -4.10190000      -4.69300000       0.09260000
H        0.63080000       1.95230000       0.85760000
H        0.24350000       1.65640000      -0.84190000
H       -1.04400000       2.05380000       0.30190000
H        0.66100000      -0.52270000       0.38790000
H       -0.60020000      -0.11970000       1.53180000
H       -2.30690000      -0.22170000      -0.29620000
H       -1.03350000      -0.48430000      -1.47920000
H       -3.33500000      -2.16370000      -0.77630000
H       -2.32530000      -4.68360000      -1.25070000
H       -2.39890000      -5.88580000       0.93230000
H       -2.71150000      -4.30590000       1.79180000
H       -4.82160000      -3.97240000       0.46670000
H       -4.54120000      -5.53980000      -0.42200000
