13
Properties=species:S:1:pos:R:3 pbc="F F F"
O       -0.08140000       1.44940000       0.02360000
C        0.01060000       0.03560000       0.02090000
C        0.67360000      -0.50740000      -1.27580000
C       -0.04370000      -0.11570000      -2.48010000
C       -0.64910000       0.19900000      -3.46890000
C        0.72070000      -0.47170000       1.19940000
C        1.34670000      -0.86450000       2.14750000
H        0.80560000       1.80270000       0.15650000
H       -1.02740000      -0.31440000       0.04180000
H        1.70920000      -0.14560000      -1.31130000
H        0.73150000      -1.60010000      -1.20500000
H       -1.17980000       0.48110000      -4.34420000
H        1.87770000      -1.21500000       2.99830000
