18
Properties=species:S:1:pos:R:3 pbc="F F F"
C       -1.24650000      -0.40370000      -0.36110000
N        0.18110000      -0.13000000      -0.14450000
C        0.72030000      -0.61830000       1.05470000
C        1.12010000      -1.86000000       1.49320000
O        1.05410000      -3.01350000       0.78350000
N        1.63260000      -1.81430000       2.75110000
C        1.54590000      -0.54140000       3.10540000
N        1.01430000       0.22860000       2.12880000
C        0.74890000       1.65080000       2.17370000
H       -1.83270000       0.08960000       0.42000000
H       -1.54820000       0.01700000      -1.32530000
H       -1.49370000      -1.47470000      -0.34880000
H        0.71990000      -0.45990000      -0.93670000
H        1.43070000      -3.69690000       1.35090000
H        1.85360000      -0.13370000       4.05680000
H        1.45680000       2.13160000       2.85210000
H        0.86530000       2.06180000       1.16950000
H       -0.27010000       1.86090000       2.51770000
