23
Properties=species:S:1:pos:R:3 pbc="F F F"
C       -0.10000000       1.57180000      -0.41240000
C        0.06160000       0.07410000      -0.18230000
C        1.20580000      -0.67440000      -0.88360000
C        2.54570000      -0.26810000      -0.33450000
C        1.69480000      -1.22030000       0.45790000
C        0.58930000      -0.45460000       1.19730000
C        0.96780000       0.42640000       2.41980000
C        0.41720000      -0.68810000       3.35070000
C       -0.33320000      -1.28310000       2.12930000
H        0.82750000       2.11820000      -0.21390000
H       -0.39090000       1.77730000      -1.44870000
H       -0.87650000       1.99100000       0.23760000
H       -0.88960000      -0.42820000      -0.39450000
H        1.12050000      -1.19050000      -1.83300000
H        3.40150000      -0.71220000      -0.83350000
H        2.72470000       0.74240000       0.02520000
H        2.02890000      -2.22230000       0.70430000
H        2.01960000       0.70600000       2.52530000
H        0.36000000       1.33560000       2.47150000
H        1.21000000      -1.35120000       3.70760000
H       -0.18410000      -0.37760000       4.20840000
H       -1.37050000      -0.93500000       2.07800000
H       -0.32700000      -2.36960000       2.00090000
