19
Properties=species:S:1:pos:R:3 pbc="F F F"
C       -0.26650000       1.40170000       0.17790000
C       -0.06730000      -0.09280000      -0.08330000
C        0.84560000      -0.39820000      -1.29360000
C        1.13650000      -1.90090000      -1.47080000
C        0.01280000      -2.34750000      -2.41420000
O       -0.29380000      -1.19180000      -3.21120000
C        0.16960000      -0.05400000      -2.61010000
N        0.03570000       1.10580000      -3.09550000
H        0.68630000       1.88510000       0.42040000
H       -0.67460000       1.90360000      -0.70230000
H       -0.94620000       1.56020000       1.02090000
H        0.38040000      -0.56610000       0.79940000
H       -1.04110000      -0.57860000      -0.22950000
H        1.76170000       0.18980000      -1.19750000
H        2.10820000      -2.04850000      -1.95160000
H        1.13650000      -2.45480000      -0.52900000
H        0.29780000      -3.15600000      -3.09160000
H       -0.88930000      -2.65220000      -1.86950000
H       -0.47600000       1.06430000      -3.97920000
