20
Properties=species:S:1:pos:R:3 pbc="F F F"
C       -0.91150000      -1.55690000       0.15310000
C        0.35450000      -0.71350000      -0.01510000
C        0.91810000      -0.66760000      -1.42950000
C        0.73190000      -1.75350000      -2.39720000
O       -0.04610000      -0.55040000      -2.49160000
C        2.09300000       0.25500000      -1.60160000
C        1.86050000       1.73870000      -1.51720000
N        3.22300000      -0.30490000      -1.80550000
O        4.25940000       0.63280000      -1.92280000
H       -1.66630000      -1.26790000      -0.58270000
H       -0.70700000      -2.62500000       0.03250000
H       -1.33200000      -1.41490000       1.15250000
H        0.14500000       0.31890000       0.29410000
H        1.14960000      -1.07310000       0.64960000
H        1.47520000      -1.89260000      -3.17790000
H        0.17070000      -2.64260000      -2.11930000
H        2.12230000       2.12130000      -0.52380000
H        2.49450000       2.25960000      -2.23760000
H        0.81260000       1.97210000      -1.71600000
H        5.01890000       0.07170000      -2.11190000
