17
Properties=species:S:1:pos:R:3 pbc="F F F"
O       -0.07850000       0.07990000      -0.62120000
N        0.13790000       1.30300000      -0.69580000
C        1.14060000       2.01960000      -0.19590000
C        1.12340000       3.50350000      -0.48450000
C       -0.13740000       4.20020000       0.00190000
C       -0.83540000       5.21060000      -0.82790000
N       -1.36400000       3.83600000      -0.73620000
H       -0.57460000       1.87780000      -1.18530000
H       -2.16510000       3.80540000      -0.11240000
C        2.21950000       1.40770000       0.57810000
O        2.34770000       0.23600000       0.85420000
H        1.99830000       3.95690000      -0.00670000
H        1.23130000       3.69010000      -1.56060000
H       -0.22470000       4.29610000       1.08190000
H       -1.38310000       6.00420000      -0.32870000
H       -0.43150000       5.48040000      -1.79960000
H        2.96510000       2.16380000       0.92060000
