16
Properties=species:S:1:pos:R:3 pbc="F F F"
C       -0.01660000      -1.22380000       0.06080000
C       -0.03860000      -0.02390000       0.01000000
C       -0.03150000       1.44280000      -0.03430000
C        1.41540000       2.01110000       0.00400000
C        2.16640000       1.58640000       1.27900000
C        3.52300000       2.12470000       1.32240000
N        4.59370000       2.55870000       1.34340000
C       -0.74670000       1.94860000      -1.20940000
C       -1.31090000       2.38850000      -2.17330000
H       -0.01390000      -2.28550000       0.09700000
H       -0.55390000       1.80900000       0.86270000
H        1.95650000       1.66590000      -0.88050000
H        1.35650000       3.10110000      -0.05180000
H        1.62820000       1.92820000       2.17150000
H        2.21550000       0.49380000       1.33760000
H       -1.81780000       2.76840000      -3.02600000
