19
Properties=species:S:1:pos:R:3 pbc="F F F"
O       -0.10700000       1.49550000       0.02130000
C        0.03910000       0.08200000       0.07420000
C       -1.34780000      -0.52810000      -0.04300000
C       -2.05780000      -0.31660000      -1.41330000
C       -2.43800000      -1.79070000      -1.77550000
O       -2.71710000      -2.33690000      -0.47780000
C       -1.41880000      -2.09320000       0.07460000
C       -0.50420000      -2.69360000      -0.98850000
C       -1.14240000      -2.50550000      -2.14420000
H        0.76970000       1.88930000       0.05660000
H        0.67970000      -0.28030000      -0.74410000
H        0.50600000      -0.23010000       1.02400000
H       -1.96650000      -0.11080000       0.75650000
H       -2.95520000       0.29560000      -1.30540000
H       -1.41310000       0.15260000      -2.16000000
H       -3.29240000      -1.91750000      -2.43900000
H       -1.34790000      -2.49060000       1.08680000
H        0.48740000      -3.09030000      -0.81800000
H       -0.79820000      -2.70430000      -3.15010000
