19
Properties=species:S:1:pos:R:3 pbc="F F F"
C       -0.12870000       1.52370000       0.00480000
C        0.06320000       0.00850000       0.04170000
C        0.99130000      -0.57390000      -1.08310000
C        2.01070000      -1.33010000      -0.20770000
C        1.09000000      -2.01120000       0.84740000
C        0.82880000      -0.53700000       1.27140000
C        2.31990000      -0.28310000       0.90000000
H        0.82600000       2.05730000       0.06290000
H       -0.62060000       1.83390000      -0.92370000
H       -0.75150000       1.86490000       0.83950000
H       -0.92560000      -0.46330000      -0.00510000
H        0.45680000      -1.23470000      -1.77220000
H        1.46340000       0.21670000      -1.67600000
H        2.80330000      -1.87680000      -0.72020000
H        0.24030000      -2.60150000       0.48890000
H        1.65160000      -2.57540000       1.59600000
H        0.42830000      -0.28240000       2.25420000
H        3.00700000      -0.66450000       1.65900000
H        2.62560000       0.72150000       0.59380000
