21
Properties=species:S:1:pos:R:3 pbc="F F F"
C       -0.09310000       1.58910000       0.12620000
C        1.45650000       1.46220000       0.04740000
C        1.78560000       0.70880000       1.35090000
C        0.65490000      -0.37560000       1.30310000
C       -0.02630000       0.04020000      -0.01540000
C        1.19170000       0.29650000      -0.94290000
C        0.99770000       0.56520000      -2.44750000
O        1.97510000      -0.43900000      -2.78780000
C        2.21690000      -0.75230000      -1.40040000
H       -0.52860000       2.00290000       1.04080000
H       -0.52530000       2.07850000      -0.74940000
H        2.09460000       2.30400000      -0.22630000
H        2.78840000       0.27170000       1.34010000
H        1.71490000       1.35560000       2.23000000
H        1.05060000      -1.39480000       1.26650000
H       -0.02660000      -0.31450000       2.15620000
H       -0.88060000      -0.54920000      -0.35220000
H        0.00610000       0.32670000      -2.85570000
H        1.29440000       1.56210000      -2.80120000
H        3.26000000      -0.56230000      -1.11230000
H        1.97180000      -1.79760000      -1.16680000
