15
Properties=species:S:1:pos:R:3 pbc="F F F"
N       -0.42810000       1.42100000      -0.00780000
C       -0.34910000       0.17530000       0.13280000
O       -1.20630000      -0.62610000      -0.55890000
C       -1.13070000      -2.02100000      -0.34490000
C       -2.13940000      -2.51020000       0.71020000
C       -1.74470000      -2.13730000       2.06370000
N       -1.39810000      -1.83010000       3.12240000
C       -1.38900000      -2.68810000      -1.69790000
O       -1.88090000      -3.77710000      -1.81640000
H        0.27560000       1.88690000       0.56090000
H        0.35280000      -0.38380000       0.76410000
H       -0.11170000      -2.30880000      -0.03950000
H       -3.12330000      -2.08720000       0.48390000
H       -2.22190000      -3.59830000       0.62610000
H       -1.06730000      -2.07040000      -2.56110000
