18
Properties=species:S:1:pos:R:3 pbc="F F F"
N       -0.28780000      -1.10170000      -0.58940000
C       -0.17280000       0.01930000      -0.33000000
C       -0.01590000       1.44810000       0.00580000
C       -0.79160000       1.78680000       1.27330000
C       -0.38340000       1.51140000       2.50800000
C        0.92120000       0.83610000       2.84230000
C        2.14890000       1.67450000       2.45100000
C        2.32610000       1.94050000       0.98060000
C        1.46000000       1.83260000      -0.02560000
H       -0.49090000       1.99290000      -0.81910000
H       -1.75250000       2.26550000       1.11270000
H       -1.02580000       1.79780000       3.33710000
H        0.96560000       0.62420000       3.91450000
H        0.97820000      -0.13350000       2.33080000
H        2.12700000       2.63520000       2.98620000
H        3.05310000       1.16530000       2.80920000
H        3.32930000       2.26810000       0.71070000
H        1.82330000       2.03740000      -1.02930000
