15
Properties=species:S:1:pos:R:3 pbc="F F F"
C        0.01580000       1.55530000       0.19200000
C       -0.01340000       0.04380000      -0.09600000
C       -1.38540000      -0.53910000      -0.09990000
C       -2.10690000      -1.11000000      -1.07450000
O       -3.34590000      -1.49370000      -0.60090000
C       -3.42450000      -1.15420000       0.73660000
O       -4.37510000      -1.35550000       1.44090000
N       -2.21270000      -0.56660000       1.03040000
H        1.04400000       1.92770000       0.18160000
H       -0.55820000       2.10550000      -0.55890000
H       -0.41130000       1.78700000       1.17300000
H        0.43950000      -0.15680000      -1.07210000
H        0.60620000      -0.48020000       0.64440000
H       -1.89600000      -1.31410000      -2.10950000
H       -1.99550000      -0.22670000       1.95040000
