12
Properties=species:S:1:pos:R:3 pbc="F F F"
O       -0.07320000      -0.02500000      -0.00170000
C       -0.01060000       1.18110000       0.00700000
C        1.25470000       1.94740000      -0.00060000
C        2.50250000       1.31460000      -0.01920000
N        3.64450000       1.99630000      -0.02620000
C        3.52790000       3.32950000      -0.01420000
N        2.40210000       4.04640000       0.00380000
C        1.27080000       3.34070000       0.01040000
H       -0.92950000       1.80820000       0.02190000
H        2.55830000       0.22920000      -0.02860000
H        4.45760000       3.89310000      -0.01970000
H        0.33950000       3.90600000       0.02500000
