17
Properties=species:S:1:pos:R:3 pbc="F F F"
O       -0.88680000       1.19450000       0.08030000
C        0.25260000       0.89630000       0.34930000
C        1.41960000       1.78800000       0.06340000
N        2.58380000       1.30400000       0.30110000
C        3.74550000       2.13670000       0.02580000
C        3.51310000       3.39460000      -0.80490000
C        2.90770000       3.32200000      -2.18850000
C        2.09820000       3.84650000      -1.01600000
N        1.08870000       3.01850000      -0.43070000
H        0.54070000      -0.06580000       0.81240000
H        4.16480000       2.44040000       0.99590000
H        4.51170000       1.50130000      -0.43830000
H        4.24940000       4.17620000      -0.64490000
H        3.24650000       4.02660000      -2.94010000
H        2.63600000       2.34370000      -2.57230000
H        1.86950000       4.90590000      -0.97260000
H        0.13710000       3.08600000      -0.76740000
