16
Properties=species:S:1:pos:R:3 pbc="F F F"
C       -0.12700000       1.57000000      -0.02920000
C        0.07310000       0.05280000      -0.01340000
N        0.69590000      -0.45480000      -1.22170000
C        0.09080000      -0.67080000      -2.45800000
C        1.03580000      -1.11480000      -3.31160000
N        2.23250000      -1.16730000      -2.60230000
C        2.05410000      -0.75610000      -1.28880000
O        2.88130000      -0.67630000      -0.39770000
H        0.83460000       2.08140000      -0.12610000
H       -0.76620000       1.87910000      -0.86250000
H       -0.59970000       1.89870000       0.90160000
H        0.73630000      -0.23330000       0.80710000
H       -0.88380000      -0.46170000       0.13000000
H       -0.96070000      -0.49870000      -2.61280000
H        0.96620000      -1.39860000      -4.34690000
H        3.12860000      -1.45850000      -2.94900000
