18
Properties=species:S:1:pos:R:3 pbc="F F F"
O        0.09080000      -0.04780000       0.05620000
C        0.01400000       1.16110000       0.13400000
C       -1.29960000       1.95370000       0.16510000
C       -1.22550000       3.36770000       0.78820000
C        0.00450000       4.13340000       0.34040000
C        1.07510000       3.40020000       0.05940000
C        2.54100000       3.44550000      -0.34440000
C        2.50890000       1.87700000      -0.26820000
N        1.09790000       1.99510000       0.12180000
H       -1.60620000       2.03580000      -0.88700000
H       -2.05060000       1.33600000       0.66220000
H       -2.13930000       3.91400000       0.53250000
H       -1.22430000       3.28320000       1.88560000
H        0.01400000       5.21520000       0.31350000
H        2.73560000       3.84800000      -1.34060000
H        3.20830000       3.92940000       0.37150000
H        2.65540000       1.35180000      -1.21560000
H        3.14270000       1.42650000       0.49980000
