20
Properties=species:S:1:pos:R:3 pbc="F F F"
O       -0.20610000       1.51250000      -0.05750000
C       -0.04900000       0.11320000      -0.23460000
C       -1.33110000      -0.55970000       0.24690000
C       -1.29470000      -2.06470000       0.10440000
C       -1.63120000      -2.74300000      -1.18580000
N       -2.57630000      -2.80050000      -0.06450000
C       -2.48040000      -4.03060000       0.75250000
C       -1.09990000      -4.00860000       1.37100000
C       -0.45220000      -2.89880000       1.01930000
H        0.59400000       1.94680000      -0.36680000
H        0.12660000      -0.14120000      -1.29230000
H        0.81560000      -0.26310000       0.33660000
H       -1.50330000      -0.28330000       1.29400000
H       -2.17400000      -0.16660000      -0.32960000
H       -1.98430000      -2.16060000      -2.03400000
H       -1.07000000      -3.63890000      -1.44360000
H       -3.27050000      -4.02000000       1.51550000
H       -2.65640000      -4.91680000       0.12900000
H       -0.71250000      -4.80580000       1.99480000
H        0.54460000      -2.61340000       1.33290000
