14
Properties=species:S:1:pos:R:3 pbc="F F F"
O        0.19480000       1.02800000       0.81500000
C       -0.01890000       0.03470000      -0.20940000
C       -1.40340000      -0.52020000      -0.11730000
C       -2.14820000      -0.59010000       1.03380000
O       -1.90690000      -0.20220000       2.30170000
N       -3.33850000      -1.17190000       0.68760000
C       -3.26940000      -1.43300000      -0.66230000
N       -2.12600000      -1.04980000      -1.16990000
H       -0.33910000       1.79430000       0.57590000
H        0.16820000       0.44370000      -1.21020000
H        0.75020000      -0.72330000      -0.01970000
H       -1.06150000       0.27800000       2.25660000
H       -4.10800000      -1.34530000       1.31250000
H       -4.08410000      -1.89660000      -1.19680000
