19
Properties=species:S:1:pos:R:3 pbc="F F F"
C        0.10060000       1.54440000       0.06920000
C        0.02240000       0.01880000       0.04880000
O        0.65240000      -0.43970000       1.25080000
C       -1.45000000      -0.39420000       0.16140000
O       -2.07570000      -1.07140000      -0.61220000
C        0.76520000      -0.53060000      -1.17420000
C        0.60480000      -2.01460000      -1.58850000
C        0.00400000      -1.43150000      -2.88370000
O        0.19950000      -0.07440000      -2.41690000
H        1.14250000       1.84810000       0.20540000
H       -0.27200000       1.94990000      -0.87410000
H       -0.48470000       1.95380000       0.89790000
H        0.67160000      -1.40400000       1.23170000
H       -1.90550000      -0.02630000       1.10960000
H        1.81250000      -0.21280000      -1.07070000
H        1.54600000      -2.55220000      -1.71080000
H       -0.08560000      -2.61010000      -0.99210000
H        0.57190000      -1.62520000      -3.80060000
H       -1.05490000      -1.64940000      -3.04560000
