19
Properties=species:S:1:pos:R:3 pbc="F F F"
C        0.85780000      -0.68520000       1.13760000
C       -0.01930000      -0.10350000       0.01800000
N       -1.38680000      -0.62970000      -0.09620000
C       -1.47680000      -2.05250000      -0.43490000
C       -0.78060000      -2.38720000      -1.67340000
C       -0.20970000      -2.69440000      -2.68460000
C       -2.25240000      -0.32110000       1.03210000
C       -2.39710000       1.12490000       1.23870000
N       -2.51510000       2.25860000       1.42510000
H        1.84000000      -0.20320000       1.11670000
H        0.43350000      -0.51240000       2.13200000
H        1.01900000      -1.76090000       1.01620000
H       -0.10430000       0.98060000       0.14280000
H        0.46240000      -0.27250000      -0.94880000
H       -1.10100000      -2.71030000       0.37190000
H       -2.54050000      -2.29820000      -0.55200000
H        0.28920000      -2.95980000      -3.58400000
H       -3.25000000      -0.72900000       0.82910000
H       -1.92680000      -0.76490000       1.99190000
