15
Properties=species:S:1:pos:R:3 pbc="F F F"
C        0.02660000       1.45340000      -0.30950000
N       -0.02680000       0.00370000      -0.27170000
C       -1.05210000      -0.58540000       0.16210000
N       -1.08640000      -1.97900000       0.19130000
C       -2.15570000      -2.68240000       0.64450000
C       -3.26820000      -2.07030000       1.10170000
C       -3.33470000      -0.62620000       1.11400000
O       -4.23490000       0.07080000       1.48180000
O       -2.17820000       0.03000000       0.62490000
H        0.88210000       1.79650000       0.28360000
H        0.20590000       1.77900000      -1.34060000
H       -0.87790000       1.94600000       0.06180000
H       -0.25380000      -2.43040000      -0.15100000
H       -2.05190000      -3.76080000       0.61280000
H       -4.12290000      -2.62020000       1.46390000
