17
Properties=species:S:1:pos:R:3 pbc="F F F"
C       -0.05070000       1.53810000       0.01220000
C        0.10850000       0.05030000       0.07310000
O       -1.17310000      -0.67060000       0.11610000
C       -0.65450000      -1.67290000       1.01710000
C        0.17590000      -2.73040000       0.26100000
N        1.33450000      -1.75290000       0.14370000
C        0.65370000      -0.87700000       1.19780000
C        1.01570000      -0.74280000      -0.86120000
N        1.38320000      -0.57780000      -2.05070000
H        0.92620000       2.02880000       0.04680000
H       -0.53600000       1.81550000      -0.92860000
H       -0.66510000       1.89760000       0.84210000
H       -1.38460000      -1.96570000       1.77370000
H        0.47450000      -3.57230000       0.89320000
H       -0.21700000      -3.09430000      -0.69160000
H        1.19190000      -0.60400000       2.10160000
H        1.99460000      -1.34310000      -2.34950000
