18
Properties=species:S:1:pos:R:3 pbc="F F F"
O       -0.31220000       0.11070000      -0.44010000
C        0.11840000       1.17390000      -0.07790000
C        1.32340000       1.86690000      -0.69160000
N        1.18390000       3.31160000      -0.60990000
C        2.37440000       4.06570000      -0.85790000
C        3.10330000       4.18780000      -2.20290000
C        2.07640000       4.25600000      -3.32570000
O        1.32380000       5.29400000      -2.63380000
C        2.32350000       5.35050000      -1.60880000
H       -0.33650000       1.74250000       0.76440000
H        2.18920000       1.57230000      -0.07880000
H        1.49700000       1.45670000      -1.69860000
H        0.44340000       3.65420000      -1.21350000
H        3.07190000       4.07930000      -0.02140000
H        4.16840000       4.03890000      -2.31980000
H        2.47700000       4.64540000      -4.26720000
H        1.46940000       3.36460000      -3.52370000
H        2.60210000       6.32980000      -1.23600000
