16
Properties=species:S:1:pos:R:3 pbc="F F F"
C        0.55480000       1.15250000       0.07970000
N        0.10530000      -0.21170000      -0.15600000
C        0.34260000      -1.17080000       0.90800000
C       -0.48790000      -0.51160000      -1.33180000
O       -0.69960000       0.26920000      -2.24880000
C       -1.03640000      -1.91170000      -1.60090000
O       -1.93800000      -2.43040000      -0.98630000
C       -0.46250000      -2.61450000      -2.83760000
O        0.63900000      -2.39320000      -3.26100000
H        1.62920000       1.16510000       0.29530000
H        0.35240000       1.74130000      -0.81380000
H        0.02280000       1.58820000       0.93370000
H       -0.15500000      -0.84710000       1.82990000
H       -0.04740000      -2.15070000       0.63990000
H        1.41690000      -1.25810000       1.11040000
H       -1.12930000      -3.41110000      -3.22990000
