16
Properties=species:S:1:pos:R:3 pbc="F F F"
C        0.03030000       1.55620000       0.09510000
N       -0.00880000       0.08690000      -0.00240000
C        0.05170000      -0.65910000       1.18560000
N        0.13790000      -0.09890000       2.32110000
C       -0.10200000      -0.62990000      -1.17540000
O       -0.13720000      -1.85100000      -1.20890000
C       -0.16310000       0.14580000      -2.52090000
N       -0.26780000      -0.72690000      -3.54500000
O       -0.12190000       1.35530000      -2.63440000
H        0.89850000       1.95310000      -0.42910000
H       -0.86430000       1.99360000      -0.34530000
H        0.08680000       1.79060000       1.15640000
H        0.01510000      -1.72890000       0.98820000
H        0.16980000      -0.80430000       3.05460000
H       -0.28420000      -1.71340000      -3.34230000
H       -0.31020000      -0.37750000      -4.48670000
