20
Properties=species:S:1:pos:R:3 pbc="F F F"
C       -0.14280000       1.25890000      -0.10510000
N        0.14290000      -0.16710000       0.03480000
C        1.57850000      -0.48760000      -0.08660000
C        0.91760000      -0.50170000       1.25460000
C        0.98690000      -2.00960000       1.30850000
C        1.36640000      -2.87650000       2.46940000
C       -0.00970000      -2.98480000       1.84800000
C        1.64310000      -2.02830000      -0.10720000
O        0.95610000      -2.67250000      -1.14180000
H        0.64230000       1.91260000       0.30960000
H       -0.26090000       1.49950000      -1.16630000
H       -1.08360000       1.48800000       0.40500000
H        2.26500000       0.22750000      -0.52420000
H        0.99670000       0.21330000       2.06510000
H        2.07600000      -3.67960000       2.29480000
H        1.44890000      -2.41650000       3.44940000
H       -0.85880000      -2.60430000       2.40610000
H       -0.22400000      -3.85300000       1.23290000
H        2.66330000      -2.42120000      -0.09390000
H        0.10750000      -2.21110000      -1.20100000
