12
Properties=species:S:1:pos:R:3 pbc="F F F"
C        0.08170000      -1.18200000       0.06010000
C        0.04760000       0.01790000       0.01680000
C       -0.02790000       1.47440000      -0.00900000
C       -0.62470000       2.08490000       1.30150000
O        0.39940000       2.99740000       1.75870000
C        1.41180000       2.88330000       0.86990000
N        1.31450000       2.10380000      -0.12370000
H        0.12360000      -2.24290000       0.08720000
H       -0.61790000       1.77880000      -0.88170000
H       -1.54090000       2.65400000       1.13020000
H       -0.79450000       1.33530000       2.07650000
H        2.27090000       3.50710000       1.09110000
