17
Properties=species:S:1:pos:R:3 pbc="F F F"
C       -0.43220000       1.52150000      -0.45740000
O       -0.49700000       0.09470000      -0.59290000
C       -0.95770000      -0.55830000       0.48330000
O       -1.30730000      -0.02850000       1.50800000
C       -1.03730000      -2.05060000       0.25690000
C       -0.98040000      -2.90010000       1.50910000
O        0.33700000      -2.94070000       2.02250000
C       -1.68520000      -2.54260000      -0.97660000
O       -0.27180000      -2.58020000      -0.83370000
H       -0.03150000       1.88920000      -1.40160000
H       -1.42630000       1.93660000      -0.27280000
H        0.22340000       1.79660000       0.37210000
H       -1.60810000      -2.45670000       2.28470000
H       -1.35850000      -3.90670000       1.27750000
H        0.89800000      -3.28520000       1.31770000
H       -2.19180000      -3.50640000      -0.95350000
H       -2.05820000      -1.82440000      -1.70350000
