18
Properties=species:S:1:pos:R:3 pbc="F F F"
C       -0.09430000       1.46520000       0.04940000
C        0.10150000      -0.01650000      -0.03640000
C        0.09760000      -0.87270000      -1.29130000
C       -0.22800000      -2.03770000      -0.32590000
C        1.03980000      -2.21100000       0.54800000
C        0.68330000      -0.83600000       1.07230000
N       -0.77760000      -0.98130000       0.72010000
C       -1.02260000      -3.15700000      -0.73320000
C       -1.68040000      -4.10180000      -1.08160000
H        0.79330000       1.99860000      -0.30960000
H       -0.95040000       1.78280000      -0.55480000
H       -0.27930000       1.77190000       1.08340000
H       -0.76280000      -0.63640000      -1.92230000
H        1.00220000      -0.95390000      -1.90300000
H        0.88560000      -2.97890000       1.30900000
H        1.99380000      -2.37200000       0.03570000
H        0.98010000      -0.39090000       2.01520000
H       -2.26540000      -4.93420000      -1.38600000
