16
Properties=species:S:1:pos:R:3 pbc="F F F"
N       -0.03840000      -1.16370000       0.04170000
C       -0.01100000      -0.00860000      -0.00270000
C        0.01350000       1.43640000      -0.05640000
C       -0.89690000       2.21250000       0.99560000
C       -1.32670000       3.14140000      -0.12960000
C       -0.14220000       3.53580000      -1.05280000
C        1.24730000       3.33880000      -0.55370000
C        1.37480000       2.11340000      -0.03910000
C       -0.80100000       2.19070000      -1.17520000
H       -1.73150000       1.58180000       1.30740000
H       -0.37900000       2.61740000       1.86960000
H       -2.23420000       3.73150000      -0.14310000
H       -0.37280000       4.30070000      -1.78470000
H        2.00990000       4.10670000      -0.57300000
H        2.23150000       1.69130000       0.46880000
H       -1.24920000       1.75890000      -2.06070000
