15
Properties=species:S:1:pos:R:3 pbc="F F F"
O       -0.11860000      -0.02030000       0.12440000
C       -0.05590000       1.19450000       0.12450000
C        1.17280000       1.94480000       0.08070000
C        1.30440000       3.28730000      -0.03640000
N        2.59220000       3.69590000      -0.21640000
C        3.50760000       2.57020000       0.03000000
C        2.56420000       1.31780000      -0.00360000
C        2.87710000       0.38170000       1.07740000
N        3.17940000      -0.32440000       1.94030000
H       -0.97680000       1.82050000       0.15510000
H        0.50360000       4.01710000      -0.04880000
H        2.87440000       4.63080000       0.03310000
H        4.28620000       2.52160000      -0.73430000
H        3.98800000       2.66350000       1.00990000
H        2.67320000       0.77440000      -0.95010000
