17
Properties=species:S:1:pos:R:3 pbc="F F F"
C        0.35810000       0.51360000       0.85300000
C       -0.12800000       0.12680000      -0.53110000
O        0.40750000       0.52280000      -1.53870000
C       -1.34660000      -0.80730000      -0.59740000
C       -1.01140000      -2.19780000      -0.12890000
C       -0.38080000      -3.17090000      -0.84460000
O       -0.21880000      -4.29420000      -0.09750000
C       -0.75260000      -4.03690000       1.12390000
C       -1.25070000      -2.77470000       1.16720000
H        1.27580000       1.09730000       0.77510000
H       -0.41000000       1.10860000       1.36170000
H        0.52930000      -0.37770000       1.46470000
H       -2.15140000      -0.39620000       0.02300000
H       -1.68440000      -0.81400000      -1.63620000
H       -0.00510000      -3.21680000      -1.85360000
H       -0.70630000      -4.84470000       1.83530000
H       -1.74170000      -2.30490000       2.00580000
