21
Properties=species:S:1:pos:R:3 pbc="F F F"
C       -0.13830000       1.56940000       0.04880000
C        0.07610000       0.06080000       0.00360000
C        1.17490000      -0.52470000      -0.94680000
C        1.81230000      -1.24820000       0.23670000
C        2.18240000      -0.25070000       1.31850000
C        0.74680000      -0.62550000       1.21260000
C       -0.01680000      -1.27440000       2.33310000
C        2.30040000      -2.62620000       0.23550000
O        2.34910000      -3.33870000      -0.74230000
H        0.79480000       2.10590000       0.24950000
H       -0.52890000       1.93320000      -0.90760000
H       -0.85700000       1.84590000       0.82810000
H       -0.87910000      -0.43480000      -0.19870000
H        0.78280000      -1.21220000      -1.69720000
H        1.81790000       0.21000000      -1.44260000
H        2.70680000      -0.66840000       2.17380000
H        2.55030000       0.72460000       1.00920000
H       -0.48910000      -0.51150000       2.96460000
H       -0.81080000      -1.92550000       1.95190000
H        0.63360000      -1.87380000       2.97710000
H        2.62140000      -3.00250000       1.23570000
