18
Properties=species:S:1:pos:R:3 pbc="F F F"
N        0.09520000      -1.07270000       0.05560000
C        0.04390000       0.08400000       0.02860000
C       -0.04140000       1.51170000       0.00110000
C        0.37810000       2.26760000      -1.25130000
C        1.20020000       2.41890000      -0.00580000
C        0.79130000       3.42120000       1.09070000
C       -0.70060000       3.73120000       0.79450000
C       -0.87570000       2.22110000       1.10020000
C        0.23720000       2.44010000       2.18410000
H        0.81520000       1.64860000      -2.02770000
H       -0.24130000       3.06930000      -1.63230000
H        2.19490000       1.99050000       0.02410000
H        1.50680000       4.20880000       1.32560000
H       -1.14260000       4.34050000       1.58470000
H       -0.99710000       4.13490000      -0.17370000
H       -1.84480000       1.78240000       1.33260000
H        0.85320000       1.57940000       2.45620000
H       -0.12780000       2.95110000       3.07840000
