19
Properties=species:S:1:pos:R:3 pbc="F F F"
O        0.05420000       1.27210000       0.44290000
C        0.07480000      -0.09050000       0.10770000
C        1.16200000      -0.57730000      -0.81490000
C        1.23140000      -0.85320000       0.67620000
C       -1.30660000      -0.71720000       0.06360000
O       -1.14700000      -2.09590000      -0.16990000
C       -2.25070000      -0.29760000       1.22420000
O       -3.09840000       0.44280000       0.32090000
C       -2.34810000       0.01800000      -0.82700000
H       -0.22660000       1.77340000      -0.33030000
H        0.94140000      -1.40970000      -1.47200000
H        1.83200000       0.17560000      -1.21510000
H        1.93830000      -0.27570000       1.26000000
H        1.05790000      -1.86850000       1.00900000
H       -2.01730000      -2.50660000      -0.18540000
H       -2.77640000      -1.14270000       1.69100000
H       -1.81320000       0.34160000       1.99600000
H       -1.99130000       0.86260000      -1.43150000
H       -2.91780000      -0.65810000      -1.48120000
