18
Properties=species:S:1:pos:R:3 pbc="F F F"
C       -0.03600000       1.42500000      -0.02310000
N       -0.05660000      -0.01290000       0.13000000
C        0.62280000      -0.67890000       1.09940000
N        1.24380000       0.05710000       2.03940000
C        1.87370000      -0.64220000       2.98080000
C        1.90700000      -2.02950000       3.00900000
C        1.23590000      -2.69380000       1.97690000
C        1.19680000      -4.19600000       1.88990000
N        0.59460000      -2.02380000       1.02080000
H        0.95200000       1.80210000      -0.31820000
H       -0.76140000       1.70410000      -0.79050000
H       -0.30870000       1.91330000       0.91580000
H       -0.42250000      -0.59070000      -0.60730000
H        2.37970000      -0.05950000       3.74890000
H        2.43160000      -2.56920000       3.78690000
H        0.16660000      -4.55250000       1.99420000
H        1.55000000      -4.52650000       0.90860000
H        1.80860000      -4.66280000       2.66510000
