18
Properties=species:S:1:pos:R:3 pbc="F F F"
O       -0.12150000       1.48550000       0.09760000
C       -0.03260000       0.09130000       0.01980000
C       -0.50570000      -0.74330000       1.18220000
C       -1.33260000      -0.65710000      -0.08890000
C       -2.62150000       0.09720000      -0.09410000
C       -3.53590000       0.05070000      -1.27960000
C       -3.95690000      -0.63980000       0.01200000
C       -3.98320000      -2.07350000       0.06870000
N       -3.99730000      -3.22990000       0.11650000
H        0.55240000       1.79140000       0.71340000
H        0.80710000      -0.27890000      -0.56790000
H        0.00190000      -1.67310000       1.41250000
H       -0.88000000      -0.20090000       2.04460000
H       -1.32130000      -1.53790000      -0.72370000
H       -2.58790000       1.03600000       0.44670000
H       -4.08480000       0.94200000      -1.56030000
H       -3.26040000      -0.59280000      -2.10760000
H       -4.73580000      -0.16240000       0.59670000
