18
Properties=species:S:1:pos:R:3 pbc="F F F"
C       -0.14660000      -1.25730000      -0.25000000
C       -0.07540000      -0.06610000      -0.10430000
C       -0.00680000       1.38070000       0.06350000
C       -0.68680000       1.91760000       1.36980000
C        0.52010000       2.30730000       2.22360000
C        1.43650000       1.06410000       2.46420000
C        2.24170000       1.48070000       1.22620000
C        1.56740000       2.81700000       1.18970000
N        1.39850000       1.88260000       0.08880000
H       -0.20490000      -2.30900000      -0.38420000
H       -0.47590000       1.84450000      -0.81140000
H       -1.30930000       2.78820000       1.13860000
H       -1.31710000       1.16190000       1.84470000
H        0.29410000       2.92280000       3.09360000
H        2.04070000       1.17840000       3.36800000
H        0.96410000       0.07790000       2.46430000
H        3.26420000       1.20220000       0.99730000
H        1.93330000       3.82240000       1.01880000
