19
Properties=species:S:1:pos:R:3 pbc="F F F"
C        0.02990000       1.49380000       0.01260000
C        0.03990000      -0.01730000      -0.06990000
C        0.68390000      -0.65090000      -1.30060000
O        0.00680000      -1.90740000      -1.46980000
C       -0.67010000      -2.15700000      -0.24210000
C        0.36250000      -2.24840000       0.91600000
C        0.27790000      -0.76040000       1.30080000
O       -1.15320000      -0.64540000       1.58150000
C       -1.29470000      -0.77830000       0.14900000
H        1.04820000       1.89330000       0.08220000
H       -0.44020000       1.93580000      -0.87260000
H       -0.52410000       1.81970000       0.89720000
H        0.52580000      -0.04670000      -2.20160000
H        1.76650000      -0.80550000      -1.18350000
H       -1.33700000      -3.00570000      -0.38260000
H        0.03620000      -2.87010000       1.75210000
H        1.33450000      -2.59390000       0.55630000
H        0.91890000      -0.35980000       2.08680000
H       -2.26280000      -0.48430000      -0.25460000
