15
Properties=species:S:1:pos:R:3 pbc="F F F"
O       -0.05120000       0.27950000      -0.87200000
C       -0.01750000       1.30570000      -0.26250000
C       -1.06930000       2.15670000       0.49980000
C       -0.00120000       3.25960000       0.61490000
C       -0.10810000       4.70940000       0.47140000
O        0.20510000       4.09360000       1.73430000
C        1.06410000       2.33640000       0.05150000
C        2.42620000       2.10330000       0.56240000
O        2.19020000       2.69730000      -0.71380000
H       -1.96700000       2.39630000      -0.07480000
H       -1.36120000       1.71980000       1.45960000
H        0.70810000       5.26030000       0.00810000
H       -1.09090000       5.17360000       0.41180000
H        2.80120000       2.77390000       1.33290000
H        2.83620000       1.09560000       0.54170000
