21
Properties=species:S:1:pos:R:3 pbc="F F F"
C        0.02510000       1.54820000       0.04670000
C        0.00360000       0.03150000      -0.00390000
C        0.33080000      -0.65500000      -1.36930000
C       -0.78170000      -1.67690000      -1.06520000
C       -0.50900000      -2.67960000       0.07990000
C        0.12110000      -1.99970000       1.28680000
C        0.81620000      -0.66240000       1.10680000
C       -1.35580000      -1.86360000       1.05850000
C       -1.39920000      -0.73060000       0.00600000
H        1.04440000       1.93500000      -0.07250000
H       -0.58690000       1.98180000      -0.75190000
H       -0.36010000       1.91850000       1.00420000
H        0.05520000      -0.01680000      -2.21590000
H        1.35380000      -1.01710000      -1.51580000
H       -1.38310000      -2.08900000      -1.87710000
H       -0.44960000      -3.75600000      -0.03330000
H        0.45780000      -2.67390000       2.06800000
H        1.87420000      -0.74920000       0.83290000
H        0.76410000      -0.09490000       2.04560000
H       -2.13320000      -2.17110000       1.74620000
H       -2.30420000      -0.15220000      -0.16970000
